@<TRIPOS>MOLECULE
*****
 9 8 0 0 0
SMALL
GASTEIGER

@<TRIPOS>ATOM
      1 C           0.9228   -0.0526    0.0078 C.3     1  LIG1       -0.0418
      2 C           2.4373   -0.0561    0.0121 C.3     1  LIG1        0.0414
      3 O           2.9183   -1.2848    0.5375 O.3     1  LIG1       -0.3953
      4 H           0.5364    0.8836   -0.4046 H       1  LIG1        0.0252
      5 H           0.5322   -0.1783    1.0230 H       1  LIG1        0.0252
      6 H           0.5374   -0.8872   -0.5872 H       1  LIG1        0.0252
      7 H           2.8300    0.7639    0.6209 H       1  LIG1        0.0554
      8 H           2.8232    0.0543   -1.0055 H       1  LIG1        0.0554
      9 H           2.5804   -1.3675    1.4455 H       1  LIG1        0.2094
@<TRIPOS>BOND
     1     1     2    1
     2     2     3    1
     3     1     4    1
     4     1     5    1
     5     1     6    1
     6     2     7    1
     7     2     8    1
     8     3     9    1
