@<TRIPOS>MOLECULE
AAC 
    8     7     0     0     0
SMALL
USER_CHARGES

@<TRIPOS>ATOM
      1 C1         -1.5870    0.5730    1.2220 C.2       1  AAC      0.738820
      2 C2         -1.0070    0.3070   -0.1430 C.3       1  AAC     -0.452700
      3 O1         -2.4270   -0.0960    1.7500 O.2       1  AAC     -0.571800
      4 O2         -1.0890    1.6600    1.8580 O.3       1  AAC     -0.546680
      5 H1         -1.1850    1.1620   -0.8080 H         1  AAC      0.145680
      6 H2          0.0780    0.1540   -0.0750 H         1  AAC      0.145680
      7 H3         -1.4720   -0.5840   -0.5660 H         1  AAC      0.145680
      8 H4         -0.4270    2.0860    1.3010 H         1  AAC      0.395420
@<TRIPOS>BOND
     1    1    2 1
     2    1    3 2
     3    1    4 1
     4    2    5 1
     5    2    6 1
     6    2    7 1
     7    4    8 1
