@<TRIPOS>MOLECULE
ACN
    6     5     1     0     0
SMALL
No Charge or Current Charge


@<TRIPOS>ATOM
      1 C1         -0.2010    1.4630    1.5000 C.1       1  ACN      0.439300
      2 C2          0.4490    0.2820    0.9560 C.3       1  ACN     -0.423100
      3 N1         -0.7190    2.4020    1.9340 N.1       1  ACN     -0.500000
      4 H1         -0.2920   -0.5020    0.7650 H         1  ACN      0.161200
      5 H2          1.1920   -0.1000    1.6640 H         1  ACN      0.161200
      6 H3          0.9520    0.5280    0.0160 H         1  ACN      0.161200
@<TRIPOS>BOND
     1     1     2 1   
     2     1     3 3   
     3     2     4 1   
     4     2     5 1   
     5     2     6 1   
@<TRIPOS>SUBSTRUCTURE
     1 ACN         1 TEMP              0 ****  ****    0 ROOT
