@<TRIPOS>MOLECULE
ACT
   10     9     1     0     0
SMALL
No Charge or Current Charge


@<TRIPOS>ATOM
      1 C1         -0.0580   -0.4600    2.0950 C.2       1  ACT      0.766800
      2 C2         -0.8150   -0.3980    0.7910 C.3       1  ACT     -0.445100
      3 C3          0.4950    0.8440    2.6150 C.3       1  ACT     -0.445100
      4 O1          0.1030   -1.5010    2.6880 O.2       1  ACT     -0.572000
      5 H1         -0.1710    0.0020   -0.0040 H         1  ACT      0.115900
      6 H2         -1.1630   -1.3970    0.5170 H         1  ACT      0.115900
      7 H3         -1.6710    0.2830    0.8790 H         1  ACT      0.115900
      8 H4         -0.3170    1.5670    2.7700 H         1  ACT      0.115900
      9 H5          1.1780    1.2880    1.8790 H         1  ACT      0.115900
     10 H6          1.0230    0.6730    3.5560 H         1  ACT      0.115900
@<TRIPOS>BOND
     1     1     2 1   
     2     1     3 1   
     3     1     4 2   
     4     2     5 1   
     5     2     6 1   
     6     2     7 1   
     7     3     8 1   
     8     3     9 1   
     9     3    10 1   
@<TRIPOS>SUBSTRUCTURE
     1 ACT         1 TEMP              0 ****  ****    0 ROOT
