@<TRIPOS>MOLECULE
ANI
   14    14     1     0     0
SMALL
No Charge or Current Charge


@<TRIPOS>ATOM
      1 C1          1.8970   -1.0150   -0.1130 C.ar      1  ANI     -0.111400
      2 C2          0.8170   -0.4660    0.5710 C.ar      1  ANI     -0.205800
      3 C3          2.9130   -1.6230    0.6170 C.ar      1  ANI     -0.205800
      4 C4          0.7500   -0.5210    1.9560 C.ar      1  ANI     -0.211900
      5 C5          2.8550   -1.6840    2.0020 C.ar      1  ANI     -0.211900
      6 C6          1.7690   -1.1330    2.6950 C.ar      1  ANI      0.342200
      7 N1          1.6760   -1.2470    4.0770 N.3       1  ANI     -0.892600
      8 H1          1.9470   -0.9680   -1.1980 H         1  ANI      0.126300
      9 H2          0.0120    0.0170    0.0190 H         1  ANI      0.162300
     10 H3          3.7680   -2.0570    0.1030 H         1  ANI      0.162300
     11 H4         -0.1030   -0.0900    2.4780 H         1  ANI      0.151800
     12 H5          3.6560   -2.1660    2.5610 H         1  ANI      0.151800
     13 H6          1.1090   -0.5340    4.5160 H         1  ANI      0.371400
     14 H7          2.5660   -1.3390    4.5480 H         1  ANI      0.371400
@<TRIPOS>BOND
     1     1     2 ar  
     2     1     3 ar  
     3     1     8 1   
     4     2     4 ar  
     5     2     9 1   
     6     3     5 ar  
     7     3    10 1   
     8     4     6 ar  
     9     4    11 1   
    10     5     6 ar  
    11     5    12 1   
    12     6     7 1   
    13     7    13 1   
    14     7    14 1   
@<TRIPOS>SUBSTRUCTURE
     1 ANI         1 TEMP              0 ****  ****    0 ROOT
