@<TRIPOS>MOLECULE
BAM
   13    12     0     0     0
SMALL
USER_CHARGES

@<TRIPOS>ATOM
      1 C1          1.0170    0.0970   -0.4400 C.3       1 MOL1     -0.062500
      2 C2          1.2090    1.5170   -0.9420 C.3       1 MOL1      0.043300
      3 C3          2.5800    1.7550   -1.5490 C.3       1 MOL1      0.326400
      4 N1          2.6810    3.1110   -2.0690 N.3       1 MOL1     -1.043800
      5 H1          1.1230   -0.6300   -1.2570 H         1 MOL1      0.013000
      6 H2          1.7590   -0.1610    0.3270 H         1 MOL1      0.013000
      7 H3          0.0230   -0.0440   -0.0000 H         1 MOL1      0.013000
      8 H4          1.0600    2.2260   -0.1120 H         1 MOL1     -0.008100
      9 H5          0.4510    1.7690   -1.6960 H         1 MOL1     -0.008100
     10 H6          3.3530    1.4940   -0.7990 H         1 MOL1     -0.023000
     11 H7          2.7240    1.0600   -2.3900 H         1 MOL1     -0.023000
     12 H8          3.5990    3.2510   -2.4840 H         1 MOL1      0.379900
     13 H9          2.6410    3.7680   -1.2910 H         1 MOL1      0.379900
@<TRIPOS>BOND
     1    1    2 1
     2    1    5 1
     3    1    6 1
     4    1    7 1
     5    2    3 1
     6    2    8 1
     7    2    9 1
     8    3    4 1
     9    3   10 1
    10    3   11 1
    11    4   12 1
    12    4   13 1
