@<TRIPOS>MOLECULE
BUT
   15    14     0     0     0
SMALL
USER_CHARGES

@<TRIPOS>ATOM
      1 C1          0.3970   -1.0360   -0.1160 C.3       1 MOL1     -0.197180
      2 C2         -0.5810   -2.0200    0.5050 C.3       1 MOL1      0.154220
      3 C3         -1.9340   -2.0260   -0.1880 C.3       1 MOL1     -0.045680
      4 C4         -2.9130   -3.0020    0.4230 C.3       1 MOL1      0.172940
      5 O1         -4.1220   -2.9170   -0.3000 O.3       1 MOL1     -0.605160
      6 H1          0.0090   -0.0100   -0.0710 H         1 MOL1      0.041980
      7 H2          1.3650   -1.0490    0.3990 H         1 MOL1      0.041980
      8 H3          0.5790   -1.2720   -1.1730 H         1 MOL1      0.041980
      9 H4         -0.1510   -3.0330    0.4760 H         1 MOL1     -0.020580
     10 H5         -0.7170   -1.7800    1.5700 H         1 MOL1     -0.020580
     11 H6         -2.3810   -1.0220   -0.1560 H         1 MOL1      0.019660
     12 H7         -1.8140   -2.2770   -1.2520 H         1 MOL1      0.019660
     13 H8         -2.4910   -4.0230    0.3850 H         1 MOL1      0.013400
     14 H9         -3.0630   -2.7570    1.4910 H         1 MOL1      0.013400
     15 H10        -4.7450   -3.5380    0.0890 H         1 MOL1      0.369940
@<TRIPOS>BOND
     1    1    2 1
     2    1    6 1
     3    1    7 1
     4    1    8 1
     5    2    3 1
     6    2    9 1
     7    2   10 1
     8    3    4 1
     9    3   11 1
    10    3   12 1
    11    4    5 1
    12    4   13 1
    13    4   14 1
    14    5   15 1
