@<TRIPOS>MOLECULE
C01
   13    13     0     0     0
SMALL
USER_CHARGES

@<TRIPOS>ATOM
      1 C1         -0.9480   -0.1920    0.8200 C.3       1 C011      0.011080
      2 C2          0.2390    0.7470    0.9960 C.3       1 C011      0.011080
      3 C3         -0.9370   -0.3990   -0.6860 C.3       1 C011      0.115400
      4 C4          1.2140    0.1810   -0.0250 C.3       1 C011      0.115400
      5 O1          0.4240   -0.3330   -1.0870 O.3       1 C011     -0.444220
      6 H1         -0.7590   -1.1420    1.3380 H         1 C011      0.012060
      7 H2         -1.8950    0.2160    1.1890 H         1 C011      0.012060
      8 H3         -0.0460    1.7730    0.7250 H         1 C011      0.012060
      9 H4          0.6450    0.7630    2.0130 H         1 C011      0.012060
     10 H5         -1.3510   -1.3680   -0.9930 H         1 C011      0.035740
     11 H6         -1.5130    0.3910   -1.1970 H         1 C011      0.035740
     12 H7          1.9050    0.9330   -0.4270 H         1 C011      0.035740
     13 H8          1.8170   -0.6300    0.4150 H         1 C011      0.035740
@<TRIPOS>BOND
     1    1    2 1
     2    1    3 1
     3    1    6 1
     4    1    7 1
     5    2    4 1
     6    2    8 1
     7    2    9 1
     8    3    5 1
     9    3   10 1
    10    3   11 1
    11    4    5 1
    12    4   12 1
    13    4   13 1
