@<TRIPOS>MOLECULE
C02
   12    11     0     0     0
SMALL
USER_CHARGES

@<TRIPOS>ATOM
      1 C1          2.7900   -1.4380    0.2390 C.2       1 C021      0.256600
      2 C2          0.8920   -0.0880   -0.4960 C.3       1 C021     -0.337500
      3 C3          0.8430   -2.5550   -0.6760 C.3       1 C021     -0.337500
      4 N1          1.5420   -1.3540   -0.2960 N.am      1 C021      0.119600
      5 O1          3.4020   -2.4650    0.4380 O.2       1 C021     -0.488500
      6 H1          3.1980   -0.4330    0.4800 H         1 C021      0.057700
      7 H2          0.6570    0.0780   -1.5570 H         1 C021      0.121600
      8 H3          1.5520    0.7180   -0.1580 H         1 C021      0.121600
      9 H4         -0.0480   -0.0270    0.0720 H         1 C021      0.121600
     10 H5         -0.0980   -2.6550   -0.1170 H         1 C021      0.121600
     11 H6          1.4940   -3.4030   -0.4480 H         1 C021      0.121600
     12 H7          0.6080   -2.5500   -1.7500 H         1 C021      0.121600
@<TRIPOS>BOND
     1    1    4 am
     2    1    5 2
     3    1    6 1
     4    2    4 1
     5    2    7 1
     6    2    8 1
     7    2    9 1
     8    3    4 1
     9    3   10 1
    10    3   11 1
    11    3   12 1
