@<TRIPOS>MOLECULE
C02
   12    11     1     0     0
SMALL
No Charge or Current Charge


@<TRIPOS>ATOM
      1 C1          2.7900   -1.4380    0.2390 C.2       1  C02      0.346800
      2 C2          0.8920   -0.0880   -0.4960 C.3       1  C02     -0.277700
      3 C3          0.8430   -2.5550   -0.6760 C.3       1  C02     -0.277700
      4 N1          1.5420   -1.3540   -0.2960 N.am      1  C02      0.003400
      5 O1          3.4020   -2.4650    0.4380 O.2       1  C02     -0.533400
      6 H1          3.1980   -0.4330    0.4800 H         1  C02      0.073000
      7 H2          0.6570    0.0780   -1.5570 H         1  C02      0.110900
      8 H3          1.5520    0.7180   -0.1580 H         1  C02      0.110900
      9 H4         -0.0480   -0.0270    0.0720 H         1  C02      0.110900
     10 H5         -0.0980   -2.6550   -0.1170 H         1  C02      0.110900
     11 H6          1.4940   -3.4030   -0.4480 H         1  C02      0.110900
     12 H7          0.6080   -2.5500   -1.7500 H         1  C02      0.110900
@<TRIPOS>BOND
     1     1     4 am  
     2     1     5 2   
     3     1     6 1   
     4     2     4 1   
     5     2     7 1   
     6     2     8 1   
     7     2     9 1   
     8     3     4 1   
     9     3    10 1   
    10     3    11 1   
    11     3    12 1   
@<TRIPOS>SUBSTRUCTURE
     1 C02         1 TEMP              0 ****  ****    0 ROOT
