@<TRIPOS>MOLECULE
C03
    9     8     1     0     0
SMALL
No Charge or Current Charge


@<TRIPOS>ATOM
      1 C1          2.0750   -1.2230    2.3870 C.1       1  C03      0.280800
      2 C2          0.5970   -0.7600    0.4420 C.3       1  C03     -0.108200
      3 C3          1.2000   -0.2450    1.7460 C.3       1  C03      0.083900
      4 N1          2.7650   -2.0080    2.8820 N.1       1  C03     -0.466700
      5 H1          1.3800   -1.0020   -0.2840 H         1  C03      0.044600
      6 H2          0.0010   -1.6630    0.6150 H         1  C03      0.044600
      7 H3         -0.0540    0.0050    0.0060 H         1  C03      0.044600
      8 H4          0.4110    0.0210    2.4620 H         1  C03      0.038200
      9 H5          1.7860    0.6670    1.5710 H         1  C03      0.038200
@<TRIPOS>BOND
     1     1     3 1   
     2     1     4 3   
     3     2     3 1   
     4     2     5 1   
     5     2     6 1   
     6     2     7 1   
     7     3     8 1   
     8     3     9 1   
@<TRIPOS>SUBSTRUCTURE
     1 C03         1 TEMP              0 ****  ****    0 ROOT
