@<TRIPOS>MOLECULE
C04
    7     6     0     0     0
SMALL
USER_CHARGES

@<TRIPOS>ATOM
      1 C1         -0.6510   -0.7370    0.4880 C.3       1 C041      0.326300
      2 N1         -1.8790   -0.6960   -0.2900 N.3       1 C041     -1.051100
      3 H1         -0.3540   -1.7270    0.8790 H         1 C041     -0.017400
      4 H2         -0.7390   -0.0580    1.3460 H         1 C041     -0.017400
      5 H3          0.1800   -0.3640   -0.1240 H         1 C041     -0.017400
      6 H4         -2.6430   -1.0650    0.2740 H         1 C041      0.388400
      7 H5         -1.8020   -1.3440   -1.0710 H         1 C041      0.388400
@<TRIPOS>BOND
     1    1    2 1
     2    1    3 1
     3    1    4 1
     4    1    5 1
     5    2    6 1
     6    2    7 1
