@<TRIPOS>MOLECULE
C06
   12    11     0     0     0
SMALL
USER_CHARGES

@<TRIPOS>ATOM
      1 C1          1.0720    0.0330    0.2010 C.3       1 C061     -0.412900
      2 C2          2.8230    1.0340    1.7120 C.3       1 C061     -0.412900
      3 C3          1.3450    0.9030    1.4150 C.3       1 C061      0.586500
      4 O1          0.8650    2.2230    1.2150 O.3       1 C061     -0.755300
      5 H1          1.5530    0.4630   -0.6870 H         1 C061      0.102800
      6 H2          1.4490   -0.9870    0.3460 H         1 C061      0.102800
      7 H3         -0.0060   -0.0380    0.0040 H         1 C061      0.102800
      8 H4          3.3420    1.4720    0.8500 H         1 C061      0.102800
      9 H5          3.2680    0.0560    1.9310 H         1 C061      0.102800
     10 H6          2.9790    1.6920    2.5740 H         1 C061      0.102800
     11 H7          0.8480    0.4510    2.2940 H         1 C061     -0.049700
     12 H8         -0.0710    2.1610    1.0000 H         1 C061      0.427700
@<TRIPOS>BOND
     1    1    3 1
     2    1    5 1
     3    1    6 1
     4    1    7 1
     5    2    3 1
     6    2    8 1
     7    2    9 1
     8    2   10 1
     9    3    4 1
    10    3   11 1
    11    4   12 1
