@<TRIPOS>MOLECULE
C07
   18    18     0     0     0
SMALL
USER_CHARGES

@<TRIPOS>ATOM
      1 C1         -0.8620    0.5810   -1.0410 C.3       1 C071      0.018200
      2 C2          0.2520   -0.3990   -1.3940 C.3       1 C071      0.018200
      3 C3         -1.3820    0.3420    0.3720 C.3       1 C071      0.018200
      4 C4          1.3820   -0.3420   -0.3720 C.3       1 C071      0.018200
      5 C5         -0.2520    0.3990    1.3940 C.3       1 C071      0.018200
      6 C6          0.8620   -0.5810    1.0420 C.3       1 C071      0.018200
      7 H1         -0.4720    1.6090   -1.1130 H         1 C071     -0.009100
      8 H2         -1.6810    0.5080   -1.7690 H         1 C071     -0.009100
      9 H3         -0.1620   -1.4200   -1.4160 H         1 C071     -0.009100
     10 H4          0.6360   -0.1970   -2.4020 H         1 C071     -0.009100
     11 H5         -2.1620    1.0740    0.6220 H         1 C071     -0.009100
     12 H6         -1.8580   -0.6500    0.4170 H         1 C071     -0.009100
     13 H7          2.1620   -1.0740   -0.6220 H         1 C071     -0.009100
     14 H8          1.8580    0.6500   -0.4170 H         1 C071     -0.009100
     15 H9          0.1620    1.4200    1.4170 H         1 C071     -0.009100
     16 H10        -0.6360    0.1960    2.4020 H         1 C071     -0.009100
     17 H11         0.4720   -1.6090    1.1130 H         1 C071     -0.009100
     18 H12         1.6810   -0.5080    1.7690 H         1 C071     -0.009100
@<TRIPOS>BOND
     1    1    2 1
     2    1    3 1
     3    1    7 1
     4    1    8 1
     5    2    4 1
     6    2    9 1
     7    2   10 1
     8    3    5 1
     9    3   11 1
    10    3   12 1
    11    4    6 1
    12    4   13 1
    13    4   14 1
    14    5    6 1
    15    5   15 1
    16    5   16 1
    17    6   17 1
    18    6   18 1
