@<TRIPOS>MOLECULE
C08
   10     9     0     0     0
SMALL
USER_CHARGES

@<TRIPOS>ATOM
      1 C1         -0.9010    0.4430    0.4510 C.3       1 C081      0.111600
      2 C2         -2.1380   -0.2020   -0.1140 C.3       1 C081      0.111600
      3 O1         -0.9500    0.3490    1.8560 O.3       1 C081     -0.600000
      4 O2         -2.0130   -1.5990    0.0200 O.3       1 C081     -0.600000
      5 H1         -0.8660    1.4950    0.1130 H         1 C081      0.047880
      6 H2         -0.0230   -0.0770    0.0320 H         1 C081      0.047880
      7 H3         -2.2420    0.0990   -1.1720 H         1 C081      0.047880
      8 H4         -3.0090    0.1890    0.4380 H         1 C081      0.047880
      9 H5         -0.0840    0.5870    2.1990 H         1 C081      0.392600
     10 H6         -2.8710   -1.9920   -0.1630 H         1 C081      0.392600
@<TRIPOS>BOND
     1    1    2 1
     2    1    3 1
     3    1    5 1
     4    1    6 1
     5    2    4 1
     6    2    7 1
     7    2    8 1
     8    3    9 1
     9    4   10 1
