@<TRIPOS>MOLECULE
C09
   20    20     0     0     0
SMALL
USER_CHARGES

@<TRIPOS>ATOM
      1 C1          1.9260   -1.1300   -0.1090 C.ar      1 C091     -0.096600
      2 C2          0.9670   -0.3740    0.5570 C.ar      1 C091     -0.186400
      3 C3          2.8430   -1.8740    0.6250 C.ar      1 C091     -0.186400
      4 C4          0.9220   -0.3610    1.9460 C.ar      1 C091     -0.140300
      5 C5          2.7960   -1.8580    2.0150 C.ar      1 C091     -0.140300
      6 C6          1.8370   -1.1070    2.6920 C.ar      1 C091      0.158100
      7 C7          2.0020    0.2590    4.8480 C.2       1 C091      0.686000
      8 C8          2.5260    0.2310    6.2600 C.3       1 C091     -0.472100
      9 C9          1.8010   -1.1030    4.1920 C.3       1 C091     -0.320300
     10 O1          1.7350    1.2930    4.2850 O.2       1 C091     -0.505200
     11 H1          1.9580   -1.1400   -1.1960 H         1 C091      0.123800
     12 H2          0.2470    0.2120   -0.0090 H         1 C091      0.142800
     13 H3          3.5970   -2.4690    0.1160 H         1 C091      0.142800
     14 H4          0.1780    0.2420    2.4590 H         1 C091      0.121300
     15 H5          3.5170   -2.4440    2.5850 H         1 C091      0.121300
     16 H6          3.5740   -0.0970    6.2510 H         1 C091      0.125000
     17 H7          2.4610    1.2270    6.7040 H         1 C091      0.125000
     18 H8          1.9710   -0.4950    6.8680 H         1 C091      0.125000
     19 H9          0.8200   -1.4500    4.5560 H         1 C091      0.088300
     20 H10         2.5310   -1.8130    4.6000 H         1 C091      0.088300
@<TRIPOS>BOND
     1    1    2 ar
     2    1    3 ar
     3    1   11 1
     4    2    4 ar
     5    2   12 1
     6    3    5 ar
     7    3   13 1
     8    4    6 ar
     9    4   14 1
    10    5    6 ar
    11    5   15 1
    12    6    9 1
    13    7    8 1
    14    7    9 1
    15    7   10 2
    16    8   16 1
    17    8   17 1
    18    8   18 1
    19    9   19 1
    20    9   20 1
