@<TRIPOS>MOLECULE
C09
   20    20     1     0     0
SMALL
No Charge or Current Charge


@<TRIPOS>ATOM
      1 C1          2.0000   -1.2020   -0.0990 C.ar      1  C09     -0.106300
      2 C2          1.1030   -0.3300    0.5100 C.ar      1  C09     -0.199700
      3 C3          2.8020   -2.0200    0.6880 C.ar      1  C09     -0.199700
      4 C4          1.0070   -0.2750    1.8950 C.ar      1  C09     -0.145000
      5 C5          2.7050   -1.9630    2.0740 C.ar      1  C09     -0.145000
      6 C6          1.8070   -1.0950    2.6950 C.ar      1  C09      0.111000
      7 C7          2.0380    0.3030    4.8230 C.2       1  C09      0.716400
      8 C8          2.5020    0.2580    6.2550 C.3       1  C09     -0.440500
      9 C9          1.7150   -1.0460    4.1910 C.3       1  C09     -0.272800
     10 O1          1.9040    1.3440    4.2260 O.2       1  C09     -0.546200
     11 H1          2.0720   -1.2440   -1.1830 H         1  C09      0.138000
     12 H2          0.4730    0.3150   -0.0980 H         1  C09      0.156600
     13 H3          3.5070   -2.7060    0.2230 H         1  C09      0.156600
     14 H4          0.3140    0.4170    2.3650 H         1  C09      0.136100
     15 H5          3.3360   -2.6070    2.6860 H         1  C09      0.136100
     16 H6          3.5100   -0.1780    6.2950 H         1  C09      0.115000
     17 H7          2.5280    1.2660    6.6730 H         1  C09      0.115000
     18 H8          1.8530   -0.3900    6.8570 H         1  C09      0.115000
     19 H9          0.6880   -1.2760    4.5220 H         1  C09      0.079700
     20 H10         2.3460   -1.8200    4.6450 H         1  C09      0.079700
@<TRIPOS>BOND
     1     1     2 ar  
     2     1     3 ar  
     3     1    11 1   
     4     2     4 ar  
     5     2    12 1   
     6     3     5 ar  
     7     3    13 1   
     8     4     6 ar  
     9     4    14 1   
    10     5     6 ar  
    11     5    15 1   
    12     6     9 1   
    13     7     8 1   
    14     7     9 1   
    15     7    10 2   
    16     8    16 1   
    17     8    17 1   
    18     8    18 1   
    19     9    19 1   
    20     9    20 1   
@<TRIPOS>SUBSTRUCTURE
     1 C09         1 TEMP              0 ****  ****    0 ROOT
