@<TRIPOS>MOLECULE
C10
    6     5     0     0     0
SMALL
USER_CHARGES

@<TRIPOS>ATOM
      1 C1          0.2070    0.6160   -0.1570 C.2       1 C101      0.586200
      2 N1         -0.2030   -0.6330    0.1700 N.am      1 C101     -0.853600
      3 O1          1.1280    1.2000    0.3620 O.2       1 C101     -0.514000
      4 H1         -0.4110    1.0530   -0.9730 H         1 C101     -0.000200
      5 H2          0.2830   -1.1330    0.9000 H         1 C101      0.390800
      6 H3         -0.9790   -1.0730   -0.2970 H         1 C101      0.390800
@<TRIPOS>BOND
     1    1    2 am
     2    1    3 2
     3    1    4 1
     4    2    5 1
     5    2    6 1
