@<TRIPOS>MOLECULE
C10
    6     5     1     0     0
SMALL
No Charge or Current Charge


@<TRIPOS>ATOM
      1 C1          0.2070    0.6160   -0.1570 C.2       1  C10      0.661900
      2 N1         -0.2030   -0.6330    0.1700 N.am      1  C10     -0.943700
      3 O1          1.1280    1.2000    0.3620 O.2       1  C10     -0.566300
      4 H1         -0.4110    1.0530   -0.9730 H         1  C10      0.011400
      5 H2          0.2830   -1.1330    0.9000 H         1  C10      0.418300
      6 H3         -0.9790   -1.0730   -0.2970 H         1  C10      0.418300
@<TRIPOS>BOND
     1     1     2 am  
     2     1     3 2   
     3     1     4 1   
     4     2     5 1   
     5     2     6 1   
@<TRIPOS>SUBSTRUCTURE
     1 C10         1 TEMP              0 ****  ****    0 ROOT
