@<TRIPOS>MOLECULE
C11
    8     7     1     0     0
SMALL
No Charge or Current Charge


@<TRIPOS>ATOM
      1 C1         -0.5880   -0.4560   -0.8180 C.2       1  C11     -0.347400
      2 C2         -0.7480   -1.7770   -0.9020 C.2       1  C11     -0.185900
      3 C3         -0.1440   -2.6720    0.0970 C.2       1  C11      0.496600
      4 O1         -0.2470   -3.8740    0.0840 O.2       1  C11     -0.479200
      5 H1         -1.0230    0.2290   -1.5430 H         1  C11      0.194400
      6 H2         -0.0060   -0.0180   -0.0060 H         1  C11      0.194400
      7 H3         -1.3210   -2.2510   -1.6970 H         1  C11      0.136600
      8 H4          0.4350   -2.1460    0.8950 H         1  C11     -0.009600
@<TRIPOS>BOND
     1     1     2 2   
     2     1     5 1   
     3     1     6 1   
     4     2     3 1   
     5     2     7 1   
     6     3     4 2   
     7     3     8 1   
@<TRIPOS>SUBSTRUCTURE
     1 C11         1 TEMP              0 ****  ****    0 ROOT
