@<TRIPOS>MOLECULE
C12
   11    11     1     0     0
SMALL
No Charge or Current Charge


@<TRIPOS>ATOM
      1 C1          0.4000    0.1090    1.1400 C.3       1  C12      0.117200
      2 C2          0.2340    1.1870    0.0920 C.3       1  C12      0.117200
      3 C3         -0.3960   -0.8090   -0.7700 C.3       1  C12      0.307200
      4 O1          0.4120   -1.0650    0.3530 O.3       1  C12     -0.441100
      5 O2         -0.6530    0.5730   -0.8220 O.3       1  C12     -0.441100
      6 H1          1.3400    0.1620    1.6980 H         1  C12      0.056400
      7 H2         -0.4460    0.1090    1.8480 H         1  C12      0.056400
      8 H3         -0.2310    2.1080    0.4600 H         1  C12      0.056400
      9 H4          1.1980    1.4300   -0.3850 H         1  C12      0.056400
     10 H5          0.1480   -1.1560   -1.6630 H         1  C12      0.057400
     11 H6         -1.3660   -1.3300   -0.7010 H         1  C12      0.057400
@<TRIPOS>BOND
     1     1     2 1   
     2     1     4 1   
     3     1     6 1   
     4     1     7 1   
     5     2     5 1   
     6     2     8 1   
     7     2     9 1   
     8     3     4 1   
     9     3     5 1   
    10     3    10 1   
    11     3    11 1   
@<TRIPOS>SUBSTRUCTURE
     1 C12         1 TEMP              0 ****  ****    0 ROOT
