@<TRIPOS>MOLECULE
C13
    9     8     0     0     0
SMALL
USER_CHARGES

@<TRIPOS>ATOM
      1 C1          0.0020   -0.8550   -0.6890 C.2       1 C131     -0.260480
      2 C2          0.4410   -2.0830   -0.4280 C.2       1 C131     -0.278660
      3 C3          0.9930   -2.3980    0.9070 C.2       1 C131      0.694900
      4 O1          1.0930   -1.6260    1.8290 O.2       1 C131     -0.547400
      5 O2          1.3850   -3.6830    0.9870 O.3       1 C131     -0.519380
      6 H1         -0.4090   -0.5870   -1.6600 H         1 C131      0.175980
      7 H2          0.0540   -0.0910    0.0850 H         1 C131      0.175980
      8 H3          0.4160   -2.8870   -1.1600 H         1 C131      0.175900
      9 H4          1.7280   -3.7960    1.8870 H         1 C131      0.383000
@<TRIPOS>BOND
     1    1    2 2
     2    1    6 1
     3    1    7 1
     4    2    3 1
     5    2    8 1
     6    3    4 2
     7    3    5 1
     8    5    9 1
