@<TRIPOS>MOLECULE
C14
   13    12     1     0     0
SMALL
No Charge or Current Charge


@<TRIPOS>ATOM
      1 C1         -0.5910    0.4780   -1.0650 C.2       1  C14      0.879300
      2 C2          0.6980   -1.0790    0.2450 C.2       1  C14      0.879300
      3 C3         -1.7400    1.3990   -0.8110 C.3       1  C14     -0.554400
      4 C4          1.6660   -0.9810    1.3800 C.3       1  C14     -0.554400
      5 O1         -0.1700    0.1290   -2.1230 O.2       1  C14     -0.538400
      6 O2          0.5060   -2.0220   -0.4570 O.2       1  C14     -0.538400
      7 O3         -0.0190    0.1050    0.1440 O.3       1  C14     -0.558100
      8 H1         -2.5380    0.8490   -0.2970 H         1  C14      0.164200
      9 H2         -1.4290    2.2140   -0.1490 H         1  C14      0.164200
     10 H3         -2.1090    1.7940   -1.7590 H         1  C14      0.164200
     11 H4          2.4270   -0.2280    1.1410 H         1  C14      0.164200
     12 H5          2.1380   -1.9510    1.5430 H         1  C14      0.164200
     13 H6          1.1500   -0.6460    2.2860 H         1  C14      0.164200
@<TRIPOS>BOND
     1     1     3 1   
     2     1     5 2   
     3     1     7 1   
     4     2     4 1   
     5     2     6 2   
     6     2     7 1   
     7     3     8 1   
     8     3     9 1   
     9     3    10 1   
    10     4    11 1   
    11     4    12 1   
    12     4    13 1   
@<TRIPOS>SUBSTRUCTURE
     1 C14         1 TEMP              0 ****  ****    0 ROOT
