@<TRIPOS>MOLECULE
C14
   13    12     0     0     0
SMALL
USER_CHARGES

@<TRIPOS>ATOM
      1 C1         -0.5910    0.4780   -1.0650 C.2       1 C141      0.840200
      2 C2          0.6980   -1.0790    0.2450 C.2       1 C141      0.840200
      3 C3         -1.7400    1.3990   -0.8110 C.3       1 C141     -0.570000
      4 C4          1.6660   -0.9810    1.3800 C.3       1 C141     -0.570000
      5 O1         -0.1700    0.1290   -2.1230 O.2       1 C141     -0.566300
      6 O2          0.5060   -2.0220   -0.4570 O.2       1 C141     -0.566300
      7 O3         -0.0190    0.1050    0.1440 O.3       1 C141     -0.503400
      8 H1         -2.5380    0.8490   -0.2970 H         1 C141      0.182600
      9 H2         -1.4290    2.2140   -0.1490 H         1 C141      0.182600
     10 H3         -2.1090    1.7940   -1.7590 H         1 C141      0.182600
     11 H4          2.4270   -0.2280    1.1410 H         1 C141      0.182600
     12 H5          2.1380   -1.9510    1.5430 H         1 C141      0.182600
     13 H6          1.1500   -0.6460    2.2860 H         1 C141      0.182600
@<TRIPOS>BOND
     1    1    3 1
     2    1    5 2
     3    1    7 1
     4    2    4 1
     5    2    6 2
     6    2    7 1
     7    3    8 1
     8    3    9 1
     9    3   10 1
    10    4   11 1
    11    4   12 1
    12    4   13 1
