@<TRIPOS>MOLECULE
C15
   13    12     1     0     0
SMALL
No Charge or Current Charge


@<TRIPOS>ATOM
      1 C1          0.7850   -0.0210   -0.7970 C.3       1  C15     -0.094200
      2 C2          0.3890    0.9300   -1.9020 C.3       1  C15      0.278500
      3 C3          1.0070   -1.4340   -1.2840 C.3       1  C15      0.278500
      4 O1          0.2110    2.2060   -1.3280 O.3       1  C15     -0.624000
      5 O2          1.3680   -2.2200   -0.1690 O.3       1  C15     -0.624000
      6 H1          1.7020    0.3440   -0.3180 H         1  C15      0.037300
      7 H2          0.0020   -0.0240   -0.0270 H         1  C15      0.037300
      8 H3          1.1740    0.9450   -2.6810 H         1  C15     -0.010900
      9 H4         -0.5380    0.5740   -2.3880 H         1  C15     -0.010900
     10 H5          1.7980   -1.4430   -2.0560 H         1  C15     -0.010900
     11 H6          0.0860   -1.8140   -1.7620 H         1  C15     -0.010900
     12 H7         -0.0400    2.8130   -2.0290 H         1  C15      0.377000
     13 H8          1.5110   -3.1200   -0.4760 H         1  C15      0.377000
@<TRIPOS>BOND
     1     1     2 1   
     2     1     3 1   
     3     1     6 1   
     4     1     7 1   
     5     2     4 1   
     6     2     8 1   
     7     2     9 1   
     8     3     5 1   
     9     3    10 1   
    10     3    11 1   
    11     4    12 1   
    12     5    13 1   
@<TRIPOS>SUBSTRUCTURE
     1 C15         1 TEMP              0 ****  ****    0 ROOT
