@<TRIPOS>MOLECULE
C15
   13    12     0     0     0
SMALL
USER_CHARGES

@<TRIPOS>ATOM
      1 C1          0.7850   -0.0210   -0.7970 C.3       1 C151     -0.078100
      2 C2          0.3900    0.9300   -1.9030 C.3       1 C151      0.250200
      3 C3          1.0070   -1.4340   -1.2830 C.3       1 C151      0.250200
      4 O1          0.2120    2.2060   -1.3280 O.3       1 C151     -0.666100
      5 O2          1.3670   -2.2200   -0.1690 O.3       1 C151     -0.666100
      6 H1          1.7020    0.3440   -0.3180 H         1 C151      0.039900
      7 H2          0.0020   -0.0240   -0.0270 H         1 C151      0.039900
      8 H3          1.1750    0.9450   -2.6810 H         1 C151      0.009700
      9 H4         -0.5380    0.5740   -2.3880 H         1 C151      0.009700
     10 H5          1.7980   -1.4440   -2.0550 H         1 C151      0.009700
     11 H6          0.0850   -1.8140   -1.7620 H         1 C151      0.009700
     12 H7         -0.0390    2.8130   -2.0300 H         1 C151      0.395800
     13 H8          1.5090   -3.1210   -0.4760 H         1 C151      0.395800
@<TRIPOS>BOND
     1    1    2 1
     2    1    3 1
     3    1    6 1
     4    1    7 1
     5    2    4 1
     6    2    8 1
     7    2    9 1
     8    3    5 1
     9    3   10 1
    10    3   11 1
    11    4   12 1
    12    5   13 1
