@<TRIPOS>MOLECULE
C16
   16    15     0     0     0
SMALL
USER_CHARGES

@<TRIPOS>ATOM
      1 C1         -2.3690    0.3320   -1.4570 C.2       1 C161      0.485600
      2 C2          0.1160    0.0430   -1.0980 C.3       1 C161     -0.124640
      3 C3         -4.8780    0.4750   -1.7240 C.3       1 C161     -0.124640
      4 C4         -0.9830    0.8840   -1.7140 C.3       1 C161      0.015920
      5 C5         -3.5350    1.0980   -2.0440 C.3       1 C161      0.015920
      6 O1         -2.5370   -0.6780   -0.8110 O.2       1 C161     -0.556580
      7 H1          0.0920   -0.9780   -1.4930 H         1 C161      0.038740
      8 H2          1.1030    0.4730   -1.3010 H         1 C161      0.038740
      9 H3         -0.0160   -0.0320   -0.0130 H         1 C161      0.038740
     10 H4         -5.0320    0.4200   -0.6410 H         1 C161      0.038740
     11 H5         -4.9300   -0.5510   -2.1050 H         1 C161      0.038740
     12 H6         -5.6970    1.0540   -2.1650 H         1 C161      0.038740
     13 H7         -0.9610    1.9180   -1.3370 H         1 C161      0.014060
     14 H8         -0.8570    0.9790   -2.8040 H         1 C161      0.014060
     15 H9         -3.3730    1.1730   -3.1300 H         1 C161      0.014060
     16 H10        -3.4730    2.1350   -1.6780 H         1 C161      0.014060
@<TRIPOS>BOND
     1    1    4 1
     2    1    5 1
     3    1    6 2
     4    2    4 1
     5    2    7 1
     6    2    8 1
     7    2    9 1
     8    3    5 1
     9    3   10 1
    10    3   11 1
    11    3   12 1
    12    4   13 1
    13    4   14 1
    14    5   15 1
    15    5   16 1
