@<TRIPOS>MOLECULE
C17
   18    18     0     0     0
SMALL
USER_CHARGES

@<TRIPOS>ATOM
      1 C1          1.8420   -1.0840   -0.1280 C.ar      1 C171     -0.162000
      2 C2          0.8340   -0.4050    0.5420 C.ar      1 C171     -0.162000
      3 C3          2.8370   -1.7270    0.6000 C.ar      1 C171     -0.249200
      4 C4          0.8330   -0.3780    1.9330 C.ar      1 C171     -0.249200
      5 C5          2.8460   -1.7070    1.9930 C.ar      1 C171      0.196200
      6 C6          1.8250   -1.0200    2.6730 C.ar      1 C171      0.196200
      7 C7          3.9290   -2.4080    2.7590 C.3       1 C171     -0.464000
      8 C8          1.8060   -0.9780    4.1720 C.3       1 C171     -0.464000
      9 H1          1.8570   -1.1140   -1.2160 H         1 C171      0.142200
     10 H2          0.0480    0.1040   -0.0120 H         1 C171      0.142200
     11 H3          3.6290   -2.2610    0.0760 H         1 C171      0.149400
     12 H4          0.0440    0.1540    2.4620 H         1 C171      0.149400
     13 H5          4.4880   -1.7100    3.3970 H         1 C171      0.129100
     14 H6          3.5180   -3.1780    3.4250 H         1 C171      0.129100
     15 H7          4.6430   -2.8920    2.0850 H         1 C171      0.129100
     16 H8          1.7490   -1.9880    4.6020 H         1 C171      0.129100
     17 H9          2.7190   -0.5200    4.5740 H         1 C171      0.129100
     18 H10         0.9500   -0.4060    4.5420 H         1 C171      0.129100
@<TRIPOS>BOND
     1    1    2 ar
     2    1    3 ar
     3    1    9 1
     4    2    4 ar
     5    2   10 1
     6    3    5 ar
     7    3   11 1
     8    4    6 ar
     9    4   12 1
    10    5    6 ar
    11    5    7 1
    12    6    8 1
    13    7   13 1
    14    7   14 1
    15    7   15 1
    16    8   16 1
    17    8   17 1
    18    8   18 1
