@<TRIPOS>MOLECULE
C18
   20    19     0     0     0
SMALL
USER_CHARGES

@<TRIPOS>ATOM
      1 C1         -0.7300   -0.7450   -0.3100 C.3       1 C181     -0.129700
      2 C2         -3.1150   -2.6870   -5.9320 C.3       1 C181     -0.129700
      3 C3         -0.8290   -0.7400   -1.8270 C.3       1 C181      0.109900
      4 C4         -3.0150   -2.6930   -4.4160 C.3       1 C181      0.109900
      5 C5         -1.8680   -1.7140   -2.3630 C.3       1 C181      0.010300
      6 C6         -1.9760   -1.7190   -3.8800 C.3       1 C181      0.010300
      7 H1         -1.6880   -0.4720    0.1510 H         1 C181      0.026000
      8 H2          0.0250   -0.0350    0.0490 H         1 C181      0.026000
      9 H3         -0.4570   -1.7390    0.0670 H         1 C181      0.026000
     10 H4         -3.3880   -1.6920   -6.3080 H         1 C181      0.026000
     11 H5         -2.1570   -2.9600   -6.3940 H         1 C181      0.026000
     12 H6         -3.8710   -3.3960   -6.2910 H         1 C181      0.026000
     13 H7          0.1530   -0.9840   -2.2620 H         1 C181     -0.023500
     14 H8         -1.0700    0.2740   -2.1790 H         1 C181     -0.023500
     15 H9         -2.7740   -3.7080   -4.0650 H         1 C181     -0.023500
     16 H10        -3.9960   -2.4490   -3.9800 H         1 C181     -0.023500
     17 H11        -2.8510   -1.4720   -1.9280 H         1 C181     -0.010800
     18 H12        -1.6280   -2.7310   -2.0110 H         1 C181     -0.010800
     19 H13        -0.9930   -1.9620   -4.3140 H         1 C181     -0.010800
     20 H14        -2.2150   -0.7030   -4.2310 H         1 C181     -0.010800
@<TRIPOS>BOND
     1    1    3 1
     2    1    7 1
     3    1    8 1
     4    1    9 1
     5    2    4 1
     6    2   10 1
     7    2   11 1
     8    2   12 1
     9    3    5 1
    10    3   13 1
    11    3   14 1
    12    4    6 1
    13    4   15 1
    14    4   16 1
    15    5    6 1
    16    5   17 1
    17    5   18 1
    18    6   19 1
    19    6   20 1
