@<TRIPOS>MOLECULE
C19
   18    17     0     0     0
SMALL
USER_CHARGES

@<TRIPOS>ATOM
      1 C1         -0.2330    0.9750    0.2570 C.3       1 C191     -0.073400
      2 C2         -2.7720   -0.2450    4.4740 C.3       1 C191     -0.073400
      3 C3         -0.4380    1.2460    1.7370 C.3       1 C191      0.045500
      4 C4         -1.7070    0.6360    3.8450 C.3       1 C191      0.045500
      5 C5         -1.4730    0.3260    2.3720 C.3       1 C191      0.166200
      6 O1         -1.1280   -1.0390    2.1840 O.3       1 C191     -0.649500
      7 H1         -1.1470    1.1890   -0.3130 H         1 C191      0.017800
      8 H2          0.5730    1.5900   -0.1600 H         1 C191      0.017800
      9 H3          0.0130   -0.0800    0.0950 H         1 C191      0.017800
     10 H4         -3.7530   -0.0640    4.0170 H         1 C191      0.017800
     11 H5         -2.5290   -1.3030    4.3190 H         1 C191      0.017800
     12 H6         -2.8640   -0.0630    5.5510 H         1 C191      0.017800
     13 H7          0.5130    1.1200    2.2800 H         1 C191      0.002300
     14 H8         -0.7420    2.2900    1.9000 H         1 C191      0.002300
     15 H9         -0.7500    0.5130    4.3780 H         1 C191      0.002300
     16 H10        -1.9740    1.6980    3.9470 H         1 C191      0.002300
     17 H11        -2.4260    0.4370    1.8310 H         1 C191      0.028700
     18 H12        -0.2930   -1.1820    2.6460 H         1 C191      0.394200
@<TRIPOS>BOND
     1    1    3 1
     2    1    7 1
     3    1    8 1
     4    1    9 1
     5    2    4 1
     6    2   10 1
     7    2   11 1
     8    2   12 1
     9    3    5 1
    10    3   13 1
    11    3   14 1
    12    4    5 1
    13    4   15 1
    14    4   16 1
    15    5    6 1
    16    5   17 1
    17    6   18 1
