@<TRIPOS>MOLECULE
C20
   11    10     0     0     0
SMALL
USER_CHARGES

@<TRIPOS>ATOM
      1 C1         -0.3290   -0.5230    0.9100 C.3       1 C201      0.104000
      2 C2         -0.3820   -2.0260    0.7490 C.3       1 C201      0.138800
      3 N1         -1.6570   -0.0110    1.2110 N.3       1 C201     -0.784500
      4 O1          0.9230   -2.4690    0.4500 O.3       1 C201     -0.538400
      5 H1          0.4490   -0.2850    1.6580 H         1 C201      0.037600
      6 H2          0.0080   -0.0910   -0.0410 H         1 C201      0.037600
      7 H3         -1.1040   -2.2710   -0.0480 H         1 C201      0.020900
      8 H4         -0.7610   -2.4800    1.6840 H         1 C201      0.020900
      9 H5         -1.6410    1.0050    1.1920 H         1 C201      0.307200
     10 H6         -1.9040   -0.2530    2.1680 H         1 C201      0.307200
     11 H7          0.8890   -3.4200    0.3150 H         1 C201      0.348900
@<TRIPOS>BOND
     1    1    2 1
     2    1    3 1
     3    1    5 1
     4    1    6 1
     5    2    4 1
     6    2    7 1
     7    2    8 1
     8    3    9 1
     9    3   10 1
    10    4   11 1
