@<TRIPOS>MOLECULE
C23
    7     6     0     0     0
SMALL
USER_CHARGES

@<TRIPOS>ATOM
      1 C1          0.8570   -0.5570   -1.1910 C.2       1  C23        0.7690 
      2 C2         -0.5200    0.3050    0.6570 C.3       1  C23        0.0695 
      3 N1         -0.1520   -0.2710   -0.6010 N.2       1  C23       -0.5605 
      4 O1          1.7570   -0.8810   -1.8700 O.2       1  C23       -0.4766 
      5 H1         -0.1890    1.3490    0.7280 H         1  C23        0.0662 
      6 H2         -0.0920   -0.2560    1.4970 H         1  C23        0.0662 
      7 H3         -1.6090    0.2870    0.7540 H         1  C23        0.0662 
@<TRIPOS>BOND
     1    1    3 2
     2    1    4 2
     3    2    3 1
     4    2    5 1
     5    2    6 1
     6    2    7 1
