@<TRIPOS>MOLECULE
C24
   12    11     0     0     0
SMALL
USER_CHARGES

@<TRIPOS>ATOM
      1 C1          1.5080    1.3100   -0.6750 C.1       1  C24       -0.1429 
      2 C2          1.8870    2.1700   -1.4390 C.1       1  C24       -0.1429 
      3 C3          1.0890    0.2790    0.2770 C.3       1  C24        0.2407 
      4 C4          2.3260    3.2440   -2.3320 C.3       1  C24        0.2407 
      5 O1          1.1790    0.6940    1.6210 O.3       1  C24       -0.5772 
      6 O2          2.9150    4.3290   -1.6510 O.3       1  C24       -0.5772 
      7 H1          1.6720   -0.6390    0.0890 H         1  C24        0.0486 
      8 H2          0.0360    0.0250    0.1060 H         1  C24        0.0486 
      9 H3          1.4710    3.5630   -2.9540 H         1  C24        0.0486 
     10 H4          3.0910    2.8640   -3.0190 H         1  C24        0.0486 
     11 H5          2.0810    1.0030    1.7620 H         1  C24        0.3822 
     12 H6          2.2840    4.6190   -0.9830 H         1  C24        0.3822 
@<TRIPOS>BOND
     1    1    2 3
     2    1    3 1
     3    2    4 1
     4    3    5 1
     5    3    7 1
     6    3    8 1
     7    4    6 1
     8    4    9 1
     9    4   10 1
    10    5   11 1
    11    6   12 1
