@<TRIPOS>MOLECULE
C25
   10    10     0     0     0
SMALL
USER_CHARGES

@<TRIPOS>ATOM
      1 C1         -0.7410   -2.8500    0.3490 C.1       1  C25        0.3206 
      2 C2          0.5750   -0.5360   -2.1080 C.2       1  C25       -0.2082 
      3 C3          0.0960   -0.7450   -0.7870 C.2       1  C25       -0.1750 
      4 C4          0.5100   -1.7480   -2.7250 C.2       1  C25       -0.0438 
      5 C5         -0.2220   -2.0710   -0.7100 C.2       1  C25        0.1305 
      6 N1         -1.1670   -3.4650    1.2350 N.1       1  C25       -0.4668 
      7 O1          0.0290   -2.6900   -1.8920 O.3       1  C25       -0.1336 
      8 H1          0.9220    0.3910   -2.5440 H         1  C25        0.1914 
      9 H2         -0.0060   -0.0200    0.0100 H         1  C25        0.1924 
     10 H3          0.7610   -2.0880   -3.7200 H         1  C25        0.1924 
@<TRIPOS>BOND
     1    1    5 1
     2    1    6 3
     3    2    3 1
     4    2    4 2
     5    2    8 1
     6    3    5 2
     7    3    9 1
     8    4    7 1
     9    4   10 1
    10    5    7 1
