@<TRIPOS>MOLECULE
C26
   13    13     0     0     0
SMALL
USER_CHARGES

@<TRIPOS>ATOM
      1 C1          1.9770   -0.8630    0.0040 C.ar       1  C26       -0.2325 
      2 C2          0.8120   -0.4090   -0.5700 C.ar       1  C26       -0.2245 
      3 C3          2.8340   -1.6000   -0.8120 C.ar       1  C26        0.3955 
      4 C4          0.5860   -0.7210   -1.9150 C.ar       1  C26        0.6342 
      5 C5         -0.6480   -0.2760   -2.6340 C.3       1  C26       -0.4517 
      6 N1          2.5780   -1.8720   -2.0850 N.ar       1  C26       -0.4083 
      7 N2          1.4570   -1.4330   -2.6340 N.ar       1  C26       -0.3863 
      8 H1          2.2260   -0.6630    1.0440 H         1  C26        0.1669 
      9 H2          0.0840    0.1740   -0.0070 H         1  C26        0.1501 
     10 H3          3.7760   -1.9960   -0.4350 H         1  C26        0.0134 
     11 H4         -0.7300    0.8180   -2.6370 H         1  C26        0.1145 
     12 H5         -0.6120   -0.6320   -3.6670 H         1  C26        0.1145 
     13 H6         -1.5510   -0.6710   -2.1520 H         1  C26        0.1145 
@<TRIPOS>BOND
     1    1    2 ar
     2    1    3 ar
     3    1    8 1
     4    2    4 ar
     5    2    9 1
     6    3    6 ar
     7    3   10 1
     8    4    5 1
     9    4    7 ar
    10    5   11 1
    11    5   12 1
    12    5   13 1
    13    6    7 ar
