@<TRIPOS>MOLECULE
C27
   11    11     0     0     0
SMALL
USER_CHARGES

@<TRIPOS>ATOM
      1 C1          0.5740   -0.5360   -2.1150 C.2       1  C27       -0.2701 
      2 C2          0.4970   -1.7390   -2.7290 C.2       1  C27       -0.0695 
      3 C3         -0.2310   -2.0730   -0.7080 C.2       1  C27       -0.0425 
      4 C4          0.0960   -0.7480   -0.7810 C.2       1  C27        0.0282 
      5 C5         -0.0220    0.2410    0.2850 C.2       1  C27        0.3760 
      6 O1          0.2840    1.4040    0.1610 O.2       1  C27       -0.4573 
      7 O2          0.0070   -2.6840   -1.8780 O.3       1  C27       -0.1610 
      8 H1          0.9220    0.4000   -2.5300 H         1  C27        0.1970 
      9 H2          0.7370   -2.0900   -3.7230 H         1  C27        0.1935 
     10 H3         -0.6280   -2.6930    0.0850 H         1  C27        0.1853 
     11 H4         -0.4220   -0.1510    1.2480 H         1  C27        0.0203 
@<TRIPOS>BOND
     1    1    2 2
     2    1    4 1
     3    1    8 1
     4    2    7 1
     5    2    9 1
     6    3    4 2
     7    3    7 1
     8    3   10 1
     9    4    5 1
    10    5    6 2
    11    5   11 1
