@<TRIPOS>MOLECULE
C28
   19    19     0     0     0
SMALL
USER_CHARGES

@<TRIPOS>ATOM
      1 C1          1.4910    0.5260    1.5780 C.2       1  C28       -0.3748 
      2 C2          0.2660    0.0480    1.0470 C.2       1  C28       -0.3748 
      3 C3          1.4570    0.3390    2.9400 C.2       1  C28        0.0905 
      4 C4         -0.4890   -0.4210    2.0950 C.2       1  C28        0.0905 
      5 C5          2.4710    0.6640    3.9770 C.3       1  C28       -0.3607 
      6 C6         -1.8490   -1.0220    2.1040 C.3       1  C28       -0.3607 
      7 C7         -0.2200   -0.5360    4.5770 C.3       1  C28       -0.3408 
      8 N1          0.2480   -0.2470    3.2460 N.pl3       1  C28        0.1734 
      9 H1          2.3190    0.9570    1.0280 H         1  C28        0.2050 
     10 H2         -0.0360    0.0390    0.0060 H         1  C28        0.2050 
     11 H3          2.0920    1.3650    4.7340 H         1  C28        0.1139 
     12 H4          2.8300   -0.2280    4.5110 H         1  C28        0.1139 
     13 H5          3.3390    1.1310    3.5020 H         1  C28        0.1139 
     14 H6         -1.8510   -2.0560    2.4790 H         1  C28        0.1139 
     15 H7         -2.5590   -0.4510    2.7200 H         1  C28        0.1139 
     16 H8         -2.2430   -1.0440    1.0830 H         1  C28        0.1139 
     17 H9         -0.7690    0.3100    5.0150 H         1  C28        0.1214 
     18 H10        -0.8830   -1.4060    4.5620 H         1  C28        0.1214 
     19 H11         0.6280   -0.7690    5.2290 H         1  C28        0.1214 
@<TRIPOS>BOND
     1    1    2 1
     2    1    3 2
     3    1    9 1
     4    2    4 2
     5    2   10 1
     6    3    5 1
     7    3    8 1
     8    4    6 1
     9    4    8 1
    10    5   11 1
    11    5   12 1
    12    5   13 1
    13    6   14 1
    14    6   15 1
    15    6   16 1
    16    7    8 1
    17    7   17 1
    18    7   18 1
    19    7   19 1
