@<TRIPOS>MOLECULE
C29
   14    14     0     0     0
SMALL
USER_CHARGES

@<TRIPOS>ATOM
      1 C1          0.6150   -0.5620   -2.0930 C.2       1  C29       -0.2877 
      2 C2          0.0740   -0.7580   -0.7950 C.2       1  C29       -0.1119 
      3 C3          0.5930   -1.7840   -2.6940 C.2       1  C29        0.0211 
      4 C4         -0.2390   -2.0850   -0.7060 C.2       1  C29        0.0261 
      5 C5         -0.8240   -2.8670    0.3860 C.2       1  C29        0.5738 
      6 C6         -1.0360   -4.3360    0.1410 C.3       1  C29       -0.2922 
      7 O1         -1.1150   -2.3220    1.4320 O.2       1  C29       -0.5649 
      8 O2          0.0800   -2.7160   -1.8700 O.3       1  C29       -0.1901 
      9 H1          0.9750    0.3610   -2.5290 H         1  C29        0.2012 
     10 H2         -0.0770   -0.0300   -0.0090 H         1  C29        0.1685 
     11 H3          0.8970   -2.1330   -3.6720 H         1  C29        0.1732 
     12 H4         -0.0820   -4.8230   -0.0960 H         1  C29        0.0943 
     13 H5         -1.6890   -4.4870   -0.7270 H         1  C29        0.0943 
     14 H6         -1.4790   -4.7890    1.0300 H         1  C29        0.0943 
@<TRIPOS>BOND
     1    1    2 1
     2    1    3 2
     3    1    9 1
     4    2    4 2
     5    2   10 1
     6    3    8 1
     7    3   11 1
     8    4    5 1
     9    4    8 1
    10    5    6 1
    11    5    7 2
    12    6   12 1
    13    6   13 1
    14    6   14 1
