@<TRIPOS>MOLECULE
C30
   22    22     0     0     0
SMALL
USER_CHARGES

@<TRIPOS>ATOM
      1 C1          0.9980   -0.4300   -0.2880 C.3       1  C30       -0.2197 
      2 C2          0.7540   -1.4950   -1.3380 C.3       1  C30       -0.2197 
      3 C3          2.8700   -1.6480    0.5120 C.3       1  C30       -0.2197 
      4 C4          2.6260   -2.7130   -0.5380 C.3       1  C30       -0.2197 
      5 C5          1.8110   -0.0350    1.9290 C.3       1  C30       -0.3967 
      6 C6          1.8130   -3.1070   -2.7550 C.3       1  C30       -0.3967 
      7 N1          1.6220   -1.0120    0.8840 N.3       1  C30       -0.1098 
      8 N2          2.0020   -2.1310   -1.7100 N.3       1  C30       -0.1098 
      9 H1          1.6300    0.3720   -0.7270 H         1  C30        0.1351 
     10 H2          0.0430    0.0230    0.0080 H         1  C30        0.1351 
     11 H3          0.0260   -2.2330   -0.9400 H         1  C30        0.1351 
     12 H4          0.3100   -1.0370   -2.2320 H         1  C30        0.1351 
     13 H5          3.3140   -2.1050    1.4050 H         1  C30        0.1351 
     14 H6          3.5980   -0.9090    0.1140 H         1  C30        0.1351 
     15 H7          3.5810   -3.1650   -0.8340 H         1  C30        0.1351 
     16 H8          1.9950   -3.5140   -0.0990 H         1  C30        0.1351 
     17 H9          2.2460   -0.5150    2.8140 H         1  C30        0.1352 
     18 H10         0.8440    0.3970    2.2150 H         1  C30        0.1352 
     19 H11         2.4810    0.7980    1.6290 H         1  C30        0.1352 
     20 H12         2.7800   -3.5390   -3.0410 H         1  C30        0.1352 
     21 H13         1.3790   -2.6270   -3.6400 H         1  C30        0.1352 
     22 H14         1.1430   -3.9400   -2.4550 H         1  C30        0.1352 
@<TRIPOS>BOND
     1    1    2 1
     2    1    7 1
     3    1    9 1
     4    1   10 1
     5    2    8 1
     6    2   11 1
     7    2   12 1
     8    3    4 1
     9    3    7 1
    10    3   13 1
    11    3   14 1
    12    4    8 1
    13    4   15 1
    14    4   16 1
    15    5    7 1
    16    5   17 1
    17    5   18 1
    18    5   19 1
    19    6    8 1
    20    6   20 1
    21    6   21 1
    22    6   22 1
