@<TRIPOS>MOLECULE
C31
   22    21     0     0     0
SMALL
USER_CHARGES

@<TRIPOS>ATOM
      1 C1          0.5100   -0.7590   -0.5980 C.3       1  C31        0.0367 
      2 C2          0.7660   -1.9940    0.2520 C.3       1  C31        0.0367 
      3 C3          1.7790   -0.1500   -1.1710 C.3       1  C31        0.0199 
      4 C4         -0.5030   -2.6040    0.8230 C.3       1  C31        0.0199 
      5 C5          1.5220    1.0770   -2.0160 C.3       1  C31        0.1764 
      6 C6         -0.2470   -3.8320    1.6670 C.3       1  C31        0.1764 
      7 O1          2.7670    1.5460   -2.4880 O.3       1  C31       -0.6485 
      8 O2         -1.4920   -4.3030    2.1360 O.3       1  C31       -0.6485 
      9 H1         -0.1770   -1.0210   -1.4180 H         1  C31       -0.0100 
     10 H2         -0.0190   -0.0070    0.0090 H         1  C31       -0.0100 
     11 H3          1.4510   -1.7310    1.0730 H         1  C31       -0.0100 
     12 H4          1.2970   -2.7450   -0.3540 H         1  C31       -0.0100 
     13 H5          2.3100   -0.8890   -1.7880 H         1  C31        0.0032 
     14 H6          2.4670    0.1280   -0.3600 H         1  C31        0.0032 
     15 H7         -1.1910   -2.8810    0.0110 H         1  C31        0.0032 
     16 H8         -1.0350   -1.8660    1.4410 H         1  C31        0.0032 
     17 H9          1.0050    1.8430   -1.4100 H         1  C31        0.0191 
     18 H10         0.8460    0.8160   -2.8510 H         1  C31        0.0191 
     19 H11         0.4280   -3.5730    2.5030 H         1  C31        0.0191 
     20 H12         0.2710   -4.5970    1.0600 H         1  C31        0.0191 
     21 H13         2.6050    2.3270   -3.0260 H         1  C31        0.3909 
     22 H14        -1.3300   -5.0840    2.6730 H         1  C31        0.3909 
@<TRIPOS>BOND
     1    1    2 1
     2    1    3 1
     3    1    9 1
     4    1   10 1
     5    2    4 1
     6    2   11 1
     7    2   12 1
     8    3    5 1
     9    3   13 1
    10    3   14 1
    11    4    6 1
    12    4   15 1
    13    4   16 1
    14    5    7 1
    15    5   17 1
    16    5   18 1
    17    6    8 1
    18    6   19 1
    19    6   20 1
    20    7   21 1
    21    8   22 1
