@<TRIPOS>MOLECULE
C32
   14    15     0     0     0
SMALL
USER_CHARGES

@<TRIPOS>ATOM
      1 C1          2.0950   -0.0620   -0.8510 C.2       1  C32        0.2854 
      2 C2          0.7130   -0.0630   -0.8240 C.2       1  C32       -0.6877 
      3 C3          1.5070   -0.2260   -2.8810 C.2       1  C32        0.1954 
      4 C4          1.3690   -0.3380   -4.2820 C.2       1  C32        0.2591 
      5 C5         -0.9040   -0.3310   -4.1090 C.2       1  C32        0.2941 
      6 C6         -0.8840   -0.2220   -2.7520 C.2       1  C32       -0.6127 
      7 N1          2.5830   -0.1620   -2.1080 N.2       1  C32       -0.7236 
      8 N2          0.2120   -0.3900   -4.8900 N.2       1  C32       -0.6619 
      9 N3          0.3340   -0.1690   -2.1300 N.pl3       1  C32        0.7329 
     10 H1          2.7560    0.0080    0.0050 H         1  C32        0.1284 
     11 H2         -0.0050    0.0000   -0.0180 H         1  C32        0.3022 
     12 H3          2.2760   -0.3850   -4.8830 H         1  C32        0.0996 
     13 H4         -1.8600   -0.3740   -4.6260 H         1  C32        0.1086 
     14 H5         -1.7710   -0.1740   -2.1290 H         1  C32        0.2802 
@<TRIPOS>BOND
     1    1    2 2
     2    1    7 1
     3    1   10 1
     4    2    9 1
     5    2   11 1
     6    3    4 1
     7    3    7 2
     8    3    9 1
     9    4    8 2
    10    4   12 1
    11    5    6 2
    12    5    8 1
    13    5   13 1
    14    6    9 1
    15    6   14 1
