@<TRIPOS>MOLECULE
C33
   21    21     0     0     0
SMALL
USER_CHARGES

@<TRIPOS>ATOM
      1 C1         -0.2620   -0.9560    6.7120 C.2       1  C33        0.1343 
      2 C2         -0.9220   -0.5970    5.5660 C.2       1  C33       -0.4656 
      3 C3         -0.3500   -2.7070    5.5170 C.2       1  C33        0.1147 
      4 C4         -0.3370   -0.8420   -0.0910 C.3       1  C33       -0.1936 
      5 C5         -1.2240   -1.4290    0.9940 C.3       1  C33        0.0422 
      6 C6         -0.6320   -1.2760    2.3880 C.3       1  C33        0.0588 
      7 C7         -1.5280   -1.8640    3.4680 C.3       1  C33       -0.1714 
      8 N1          0.0920   -2.2770    6.6740 N.2       1  C33       -0.5466 
      9 N2         -0.9780   -1.7360    4.8020 N.pl3       1  C33        0.1827 
     10 H1         -0.0290   -0.3310    7.5660 H         1  C33        0.1223 
     11 H2         -1.3550    0.3360    5.2320 H         1  C33        0.2412 
     12 H3         -0.2550   -3.7190    5.1370 H         1  C33        0.1310 
     13 H4         -0.1710    0.2310    0.0700 H         1  C33        0.0471 
     14 H5          0.6470   -1.3290   -0.1060 H         1  C33        0.0471 
     15 H6         -0.7840   -0.9650   -1.0850 H         1  C33        0.0471 
     16 H7         -1.4010   -2.4960    0.7900 H         1  C33        0.0134 
     17 H8         -2.2130   -0.9470    0.9640 H         1  C33        0.0134 
     18 H9          0.3510   -1.7650    2.4360 H         1  C33        0.0167 
     19 H10        -0.4580   -0.2120    2.6050 H         1  C33        0.0167 
     20 H11        -1.6940   -2.9320    3.2850 H         1  C33        0.0742 
     21 H12        -2.5140   -1.3820    3.4510 H         1  C33        0.0742 
@<TRIPOS>BOND
     1    1    2 2
     2    1    8 1
     3    1   10 1
     4    2    9 1
     5    2   11 1
     6    3    8 2
     7    3    9 1
     8    3   12 1
     9    4    5 1
    10    4   13 1
    11    4   14 1
    12    4   15 1
    13    5    6 1
    14    5   16 1
    15    5   17 1
    16    6    7 1
    17    6   18 1
    18    6   19 1
    19    7    9 1
    20    7   20 1
    21    7   21 1
