@<TRIPOS>MOLECULE
C34
   23    22     0     0     0
SMALL
USER_CHARGES

@<TRIPOS>ATOM
      1 C1         -0.1290    0.8920   -0.9900 C.2       1  C34       -0.4368 
      2 C2         -0.4080    0.2680   -2.1420 C.2       1  C34        0.2442 
      3 C3          1.3260   -0.1560    2.4310 C.2       1  C34        0.6426 
      4 C4         -1.4980    0.7720   -3.0410 C.3       1  C34       -0.3836 
      5 C5          0.3060   -0.9470   -2.6510 C.3       1  C34       -0.3836 
      6 C6          0.8100   -0.4510    3.8160 C.3       1  C34       -0.4174 
      7 C7          0.9070    0.5400    0.0290 C.3       1  C34        0.1328 
      8 C8          0.2950    0.1850    1.3780 C.3       1  C34       -0.0575 
      9 O1          2.5080   -0.1900    2.1710 O.2       1  C34       -0.6238 
     10 H1         -0.7360    1.7690   -0.7460 H         1  C34        0.1424 
     11 H2         -1.1020    1.0290   -4.0340 H         1  C34        0.1127 
     12 H3         -1.9900    1.6590   -2.6280 H         1  C34        0.1127 
     13 H4         -2.2630   -0.0010   -3.2040 H         1  C34        0.1127 
     14 H5         -0.4050   -1.7690   -2.8180 H         1  C34        0.1127 
     15 H6          1.0870   -1.3060   -1.9770 H         1  C34        0.1127 
     16 H7          0.7710   -0.7390   -3.6260 H         1  C34        0.1127 
     17 H8          0.0500   -1.2420    3.7850 H         1  C34        0.1226 
     18 H9          0.3230    0.4410    4.2320 H         1  C34        0.1226 
     19 H10         1.6370   -0.7520    4.4640 H         1  C34        0.1226 
     20 H11         1.5430   -0.2880   -0.2970 H         1  C34        0.0190 
     21 H12         1.5880    1.3900    0.1780 H         1  C34        0.0190 
     22 H13        -0.3340    1.0040    1.7610 H         1  C34        0.0294 
     23 H14        -0.3900   -0.6730    1.2830 H         1  C34        0.0294 
@<TRIPOS>BOND
     1    1    2 2
     2    1    7 1
     3    1   10 1
     4    2    4 1
     5    2    5 1
     6    3    6 1
     7    3    8 1
     8    3    9 2
     9    4   11 1
    10    4   12 1
    11    4   13 1
    12    5   14 1
    13    5   15 1
    14    5   16 1
    15    6   17 1
    16    6   18 1
    17    6   19 1
    18    7    8 1
    19    7   20 1
    20    7   21 1
    21    8   22 1
    22    8   23 1
