@<TRIPOS>MOLECULE
C35
   18    19     0     0     0
SMALL
USER_CHARGES

@<TRIPOS>ATOM
      1 C1         -0.4970   -2.0470    0.4960 C.ar       1  C35       -0.1231 
      2 C2          0.3620   -1.0260    0.0350 C.ar       1  C35       -0.1231 
      3 C3          3.0100   -5.3180   -0.2170 C.ar       1  C35       -0.1231 
      4 C4          3.8690   -4.2970   -0.6780 C.ar       1  C35       -0.1231 
      5 C5         -0.0600   -3.3460    0.5480 C.ar       1  C35       -0.2685 
      6 C6          1.6390   -1.3250   -0.3650 C.ar       1  C35       -0.2685 
      7 C7          1.7330   -5.0190    0.1830 C.ar       1  C35       -0.2685 
      8 C8          3.4330   -2.9980   -0.7300 C.ar       1  C35       -0.2685 
      9 C9          1.2530   -3.6870    0.1420 C.ar       1  C35        0.2163 
     10 C10         2.1200   -2.6570   -0.3240 C.ar       1  C35        0.2163 
     11 H1         -1.5080   -1.7980    0.8110 H         1  C35        0.1338 
     12 H2          0.0050    0.0010   -0.0020 H         1  C35        0.1338 
     13 H3          3.3670   -6.3450   -0.1800 H         1  C35        0.1338 
     14 H4          4.8800   -4.5460   -0.9930 H         1  C35        0.1338 
     15 H5         -0.7190   -4.1370    0.9030 H         1  C35        0.1497 
     16 H6          2.3050   -0.5410   -0.7220 H         1  C35        0.1497 
     17 H7          1.0680   -5.8040    0.5400 H         1  C35        0.1497 
     18 H8          4.0920   -2.2080   -1.0850 H         1  C35        0.1497 
@<TRIPOS>BOND
     1    1    2 ar
     2    1    5 ar
     3    1   11 1
     4    2    6 ar
     5    2   12 1
     6    3    4 ar
     7    3    7 ar
     8    3   13 1
     9    4    8 ar
    10    4   14 1
    11    5    9 ar
    12    5   15 1
    13    6   10 ar
    14    6   16 1
    15    7    9 ar
    16    7   17 1
    17    8   10 ar
    18    8   18 1
    19    9   10 ar
