@<TRIPOS>MOLECULE
C36
   24    24     0     0     0
SMALL
USER_CHARGES

@<TRIPOS>ATOM
      1 C1          0.0670   -3.2830    0.5450 C.3       1  C36        0.0909 
      2 C2         -0.2900   -0.9300    0.4840 C.3       1  C36        0.0909 
      3 C3          0.3660   -3.1980    2.0290 C.3       1  C36       -0.3204 
      4 C4          0.0060   -0.8500    1.9700 C.3       1  C36       -0.3204 
      5 C5         -0.1880   -2.0430    4.0630 C.3       1  C36       -0.1368 
      6 C6         -1.2770   -1.2620    4.7800 C.3       1  C36        0.4524 
      7 N1          0.4580   -2.0360   -0.0860 N.3       1  C36       -0.6685 
      8 N2         -0.3650   -2.0930    2.6260 N.3       1  C36       -0.2507 
      9 N3         -1.0830   -1.3780    6.2190 N.3       1  C36       -0.9870 
     10 H1          0.6400   -4.1070    0.1010 H         1  C36        0.0723 
     11 H2         -1.0110   -3.5090    0.4220 H         1  C36        0.0723 
     12 H3         -1.3850   -1.0380    0.3550 H         1  C36        0.0723 
     13 H4          0.0200    0.0030   -0.0020 H         1  C36        0.0723 
     14 H5          0.0600   -4.1280    2.5260 H         1  C36        0.1603 
     15 H6          1.4610   -3.0840    2.1660 H         1  C36        0.1603 
     16 H7          1.0860   -0.6330    2.1090 H         1  C36        0.1603 
     17 H8         -0.5610   -0.0230    2.4110 H         1  C36        0.1603 
     18 H9         -0.2130   -3.0680    4.4530 H         1  C36        0.0830 
     19 H10         0.8080   -1.6290    4.3370 H         1  C36        0.0830 
     20 H11        -1.3030   -0.2190    4.4130 H         1  C36       -0.0416 
     21 H12        -2.2440   -1.7110    4.5180 H         1  C36       -0.0416 
     22 H13         0.2910   -2.0870   -1.0860 H         1  C36        0.3333 
     23 H14        -1.8370   -0.8990    6.7030 H         1  C36        0.3515 
     24 H15        -0.2380   -0.8740    6.4840 H         1  C36        0.3515 
@<TRIPOS>BOND
     1    1    3 1
     2    1    7 1
     3    1   10 1
     4    1   11 1
     5    2    4 1
     6    2    7 1
     7    2   12 1
     8    2   13 1
     9    3    8 1
    10    3   14 1
    11    3   15 1
    12    4    8 1
    13    4   16 1
    14    4   17 1
    15    5    6 1
    16    5    8 1
    17    5   18 1
    18    5   19 1
    19    6    9 1
    20    6   20 1
    21    6   21 1
    22    7   22 1
    23    9   23 1
    24    9   24 1
