@<TRIPOS>MOLECULE
C37
   16    17     0     0     0
SMALL
USER_CHARGES

@<TRIPOS>ATOM
      1 C1          1.9530   -0.9450    0.0080 C.ar       1  C37       -0.1594 
      2 C2          0.8920   -0.2190    0.5960 C.ar       1  C37       -0.1594 
      3 C3          3.0830   -1.2350    0.7290 C.ar       1  C37       -0.3105 
      4 C4          0.9740    0.2070    1.8970 C.ar       1  C37       -0.3105 
      5 C5          4.3540   -0.6770    4.0090 C.ar       1  C37        0.1290 
      6 C6          3.2900    0.0510    4.5980 C.ar       1  C37        0.1290 
      7 C7          3.1940   -0.8080    2.0720 C.ar       1  C37        0.4158 
      8 C8          2.1270   -0.0780    2.6630 C.ar       1  C37        0.4158 
      9 N1          4.3210   -1.1040    2.7720 N.ar       1  C37       -0.5232 
     10 N2          2.1930    0.3520    3.9510 N.ar       1  C37       -0.5232 
     11 H1          1.8680   -1.2740   -1.0250 H         1  C37        0.1700 
     12 H2          0.0040    0.0010    0.0070 H         1  C37        0.1700 
     13 H3          3.9150   -1.7910    0.3050 H         1  C37        0.1817 
     14 H4          0.1750    0.7670    2.3760 H         1  C37        0.1817 
     15 H5          5.2480   -0.9010    4.5940 H         1  C37        0.0967 
     16 H6          3.3680    0.3840    5.6350 H         1  C37        0.0967 
@<TRIPOS>BOND
     1    1    2 ar
     2    1    3 ar
     3    1   11 1
     4    2    4 ar
     5    2   12 1
     6    3    7 ar
     7    3   13 1
     8    4    8 ar
     9    4   14 1
    10    5    6 ar
    11    5    9 ar
    12    5   15 1
    13    6   10 ar
    14    6   16 1
    15    7    8 ar
    16    7    9 ar
    17    8   10 ar
