@<TRIPOS>MOLECULE
C38
   25    24     0     0     0
SMALL
USER_CHARGES

@<TRIPOS>ATOM
      1 C1         -1.0010    0.3410   -0.2280 C.3       1  C38        0.0668 
      2 C2         -2.0300   -0.5030    0.5090 C.3       1  C38        0.0368 
      3 C3         -1.2070    0.3670   -1.7350 C.3       1  C38        0.0368 
      4 C4         -1.8230   -0.5290    2.0150 C.3       1  C38        0.0002 
      5 C5         -0.1780    1.2090   -2.4700 C.3       1  C38        0.0002 
      6 C6         -2.8480   -1.3690    2.7420 C.3       1  C38        0.2226 
      7 C7         -0.3870    1.2310   -3.9670 C.3       1  C38        0.2226 
      8 O1         -2.5530   -1.3150    4.1220 O.3       1  C38       -0.6695 
      9 O2          0.6220    2.0390   -4.5350 O.3       1  C38       -0.6695 
     10 H1         -1.0280    1.3710    0.1610 H         1  C38       -0.0218 
     11 H2          0.0080   -0.0380   -0.0040 H         1  C38       -0.0218 
     12 H3         -3.0380   -0.1220    0.2830 H         1  C38       -0.0136 
     13 H4         -2.0020   -1.5310    0.1160 H         1  C38       -0.0136 
     14 H5         -2.2180    0.7450   -1.9550 H         1  C38       -0.0136 
     15 H6         -1.1820   -0.6650   -2.1200 H         1  C38       -0.0136 
     16 H7         -0.8230   -0.9190    2.2540 H         1  C38        0.0101 
     17 H8         -1.8610    0.4920    2.4210 H         1  C38        0.0101 
     18 H9         -0.2020    2.2450   -2.1030 H         1  C38        0.0101 
     19 H10         0.8350    0.8330   -2.2690 H         1  C38        0.0101 
     20 H11        -3.8610   -0.9820    2.5310 H         1  C38        0.0011 
     21 H12        -2.8130   -2.4060    2.3620 H         1  C38        0.0011 
     22 H13        -1.3950    1.6240   -4.1950 H         1  C38        0.0011 
     23 H14        -0.3480    0.2000   -4.3620 H         1  C38        0.0011 
     24 H15        -3.2040   -1.8490    4.5850 H         1  C38        0.4031 
     25 H16         0.4890    2.0540   -5.4870 H         1  C38        0.4031 
@<TRIPOS>BOND
     1    1    2 1
     2    1    3 1
     3    1   10 1
     4    1   11 1
     5    2    4 1
     6    2   12 1
     7    2   13 1
     8    3    5 1
     9    3   14 1
    10    3   15 1
    11    4    6 1
    12    4   16 1
    13    4   17 1
    14    5    7 1
    15    5   18 1
    16    5   19 1
    17    6    8 1
    18    6   20 1
    19    6   21 1
    20    7    9 1
    21    7   22 1
    22    7   23 1
    23    8   24 1
    24    9   25 1
