@<TRIPOS>MOLECULE
C39
   23    23     0     0     0
SMALL
USER_CHARGES

@<TRIPOS>ATOM
      1 C1         -1.0210   -1.0360    2.4410 C.ar       1  C39       -0.5308 
      2 C2         -3.2770   -1.5140    1.9120 C.ar       1  C39       -0.5308 
      3 C3         -1.0890   -2.0290    3.4070 C.ar       1  C39        0.4140 
      4 C4         -3.2420   -2.4880    2.9060 C.ar       1  C39        0.4140 
      5 C5         -2.1410   -0.7500    1.6530 C.ar       1  C39        0.3250 
      6 C6         -0.9870   -0.0140   -0.4290 C.3       1  C39       -0.3058 
      7 C7         -1.7400    1.6770    1.2560 C.3       1  C39       -0.3058 
      8 C8         -3.4080    0.4870   -0.1550 C.3       1  C39       -0.3058 
      9 C9         -2.0810    0.3390    0.5870 C.3       1  C39        0.4042 
     10 N1         -2.1780   -2.7600    3.6550 N.ar       1  C39       -0.6573 
     11 H1         -0.0900   -0.4890    2.3070 H         1  C39        0.1752 
     12 H2         -4.1970   -1.3670    1.3540 H         1  C39        0.1752 
     13 H3         -0.2150   -2.2510    4.0200 H         1  C39        0.0551 
     14 H4         -4.1340   -3.0850    3.1070 H         1  C39        0.0551 
     15 H5         -0.9220    0.7650   -1.2000 H         1  C39        0.0687 
     16 H6         -0.0040   -0.0960    0.0480 H         1  C39        0.0687 
     17 H7         -1.2020   -0.9690   -0.9240 H         1  C39        0.0687 
     18 H8         -1.6830    2.4720    0.5020 H         1  C39        0.0687 
     19 H9         -2.5050    1.9560    1.9900 H         1  C39        0.0687 
     20 H10        -0.7750    1.6350    1.7730 H         1  C39        0.0687 
     21 H11        -3.3230    1.2770   -0.9100 H         1  C39        0.0687 
     22 H12        -3.6890   -0.4390   -0.6720 H         1  C39        0.0687 
     23 H13        -4.2240    0.7610    0.5250 H         1  C39        0.0687 
@<TRIPOS>BOND
     1    1    3 ar
     2    1    5 ar
     3    1   11 1
     4    2    4 ar
     5    2    5 ar
     6    2   12 1
     7    3   10 ar
     8    3   13 1
     9    4   10 ar
    10    4   14 1
    11    5    9 1
    12    6    9 1
    13    6   15 1
    14    6   16 1
    15    6   17 1
    16    7    9 1
    17    7   18 1
    18    7   19 1
    19    7   20 1
    20    8    9 1
    21    8   21 1
    22    8   22 1
    23    8   23 1
