@<TRIPOS>MOLECULE
C40
   18    19     0     0     0
SMALL
USER_CHARGES

@<TRIPOS>ATOM
      1 C1          0.8430    1.3150    1.4880 C.ar       1  C40       -0.2337 
      2 C2          0.6680    2.0000    2.7000 C.ar       1  C40       -0.3881 
      3 C3         -1.3500    0.3060    1.6470 C.ar       1  C40       -0.3465 
      4 C4         -0.1350    0.4800    0.9560 C.ar       1  C40        0.1395 
      5 C5         -0.5250    1.8080    3.3540 C.ar       1  C40        0.3636 
      6 C6         -1.5100    0.9770    2.8350 C.ar       1  C40        0.2563 
      7 C7         -2.1530    1.6530    4.8380 C.3       1  C40        0.2179 
      8 C8          0.0880   -0.2410   -0.3420 C.3       1  C40       -0.3428 
      9 O1         -0.9720    2.3690    4.5180 O.3       1  C40       -0.4021 
     10 O2         -2.5980    0.9950    3.6610 O.3       1  C40       -0.3796 
     11 H1          1.7780    1.4400    0.9470 H         1  C40        0.1816 
     12 H2          1.4340    2.6540    3.1040 H         1  C40        0.2244 
     13 H3         -2.1380   -0.3340    1.2590 H         1  C40        0.2028 
     14 H4         -1.9320    0.9030    5.6170 H         1  C40        0.0934 
     15 H5         -2.9240    2.3520    5.1780 H         1  C40        0.0934 
     16 H6          0.0390   -1.3300   -0.2100 H         1  C40        0.1067 
     17 H7         -0.6750    0.0270   -1.0850 H         1  C40        0.1067 
     18 H8          1.0680    0.0000   -0.7670 H         1  C40        0.1067 
@<TRIPOS>BOND
     1    1    2 ar
     2    1    4 ar
     3    1   11 1
     4    2    5 ar
     5    2   12 1
     6    3    4 ar
     7    3    6 ar
     8    3   13 1
     9    4    8 1
    10    5    6 ar
    11    5    9 1
    12    6   10 1
    13    7    9 1
    14    7   10 1
    15    7   14 1
    16    7   15 1
    17    8   16 1
    18    8   17 1
    19    8   18 1
