@<TRIPOS>MOLECULE
C41
   28    27     0     0     0
SMALL
USER_CHARGES

@<TRIPOS>ATOM
      1 C1         -0.1380   -0.0370   -0.3210 C.2       1  C41        0.6397 
      2 C2         -0.4450   -5.0310    0.5050 C.3       1  C41       -0.1927 
      3 C3          0.2350    4.9890   -0.8770 C.3       1  C41       -0.1927 
      4 C4         -0.4090   -1.4050   -0.9090 C.3       1  C41       -0.2264 
      5 C5         -0.2330    1.1440   -1.2610 C.3       1  C41       -0.2264 
      6 C6         -0.5660   -3.9040   -0.5070 C.3       1  C41        0.0513 
      7 C7         -0.0480    3.6570   -1.5510 C.3       1  C41        0.0513 
      8 C8         -0.2900   -2.5350    0.0960 C.3       1  C41        0.0208 
      9 C9          0.0490    2.4770   -0.5960 C.3       1  C41        0.0208 
     10 O1          0.1430    0.1050    0.8490 O.2       1  C41       -0.5178 
     11 H1         -1.1520   -4.8960    1.3340 H         1  C41        0.0454 
     12 H2          0.5640   -5.0670    0.9390 H         1  C41        0.0454 
     13 H3         -0.6470   -6.0080    0.0500 H         1  C41        0.0454 
     14 H4          1.2450    5.0060   -0.4450 H         1  C41        0.0454 
     15 H5          0.1600    5.8240   -1.5830 H         1  C41        0.0454 
     16 H6         -0.4730    5.1770   -0.0600 H         1  C41        0.0454 
     17 H7          0.2800   -1.5520   -1.7560 H         1  C41        0.0469 
     18 H8         -1.4120   -1.3830   -1.3650 H         1  C41        0.0469 
     19 H9          0.4600    0.9650   -2.0990 H         1  C41        0.0469 
     20 H10        -1.2350    1.1320   -1.7190 H         1  C41        0.0469 
     21 H11         0.1290   -4.0820   -1.3420 H         1  C41        0.0105 
     22 H12        -1.5740   -3.9120   -0.9490 H         1  C41        0.0105 
     23 H13        -1.0520    3.6780   -2.0030 H         1  C41        0.0105 
     24 H14         0.6540    3.5090   -2.3860 H         1  C41        0.0105 
     25 H15         0.7150   -2.5130    0.5400 H         1  C41        0.0175 
     26 H16        -0.9790   -2.3440    0.9300 H         1  C41        0.0175 
     27 H17        -0.6490    2.6120    0.2430 H         1  C41        0.0175 
     28 H18         1.0470    2.4430   -0.1380 H         1  C41        0.0175 
@<TRIPOS>BOND
     1    1    4 1
     2    1    5 1
     3    1   10 2
     4    2    6 1
     5    2   11 1
     6    2   12 1
     7    2   13 1
     8    3    7 1
     9    3   14 1
    10    3   15 1
    11    3   16 1
    12    4    8 1
    13    4   17 1
    14    4   18 1
    15    5    9 1
    16    5   19 1
    17    5   20 1
    18    6    8 1
    19    6   21 1
    20    6   22 1
    21    7    9 1
    22    7   23 1
    23    7   24 1
    24    8   25 1
    25    8   26 1
    26    9   27 1
    27    9   28 1
