@<TRIPOS>MOLECULE
C42
   21    22     0     0     0
SMALL
USER_CHARGES

@<TRIPOS>ATOM
      1 C1         -1.3680   -2.0020    0.5070 C.ar       1  C42       -0.1535 
      2 C2         -0.2200   -1.2240    0.6060 C.ar       1  C42       -0.1450 
      3 C3         -1.2690   -3.3410    0.1460 C.ar       1  C42       -0.2300 
      4 C4          1.0240   -1.7900    0.3480 C.ar       1  C42       -0.2325 
      5 C5         -0.0270   -3.9090   -0.1240 C.ar       1  C42        0.0598 
      6 C6          1.1310   -3.1280   -0.0190 C.ar       1  C42        0.0415 
      7 C7          1.3120   -6.0370    0.1100 C.2       1  C42        0.5890 
      8 C8          0.1280   -5.3430   -0.5420 C.3       1  C42       -0.1668 
      9 C9          2.4460   -3.8040   -0.2850 C.3       1  C42       -0.0399 
     10 C10         2.4990   -5.1520    0.4290 C.3       1  C42       -0.1281 
     11 O1          1.3060   -7.2220    0.3420 O.2       1  C42       -0.5679 
     12 H1         -2.3430   -1.5670    0.7160 H         1  C42        0.1521 
     13 H2         -0.2920   -0.1770    0.8920 H         1  C42        0.1499 
     14 H3         -2.1650   -3.9540    0.0730 H         1  C42        0.1636 
     15 H4          1.9260   -1.1860    0.4370 H         1  C42        0.1585 
     16 H5         -0.7720   -5.9410   -0.3710 H         1  C42        0.0754 
     17 H6          0.3340   -5.3850   -1.6270 H         1  C42        0.0754 
     18 H7          2.5680   -3.9640   -1.3680 H         1  C42        0.0379 
     19 H8          3.2800   -3.1670    0.0310 H         1  C42        0.0379 
     20 H9          2.4830   -4.9930    1.5170 H         1  C42        0.0613 
     21 H10         3.4120   -5.7150    0.2080 H         1  C42        0.0613 
@<TRIPOS>BOND
     1    1    2 ar
     2    1    3 ar
     3    1   12 1
     4    2    4 ar
     5    2   13 1
     6    3    5 ar
     7    3   14 1
     8    4    6 ar
     9    4   15 1
    10    5    6 ar
    11    5    8 1
    12    6    9 1
    13    7    8 1
    14    7   10 1
    15    7   11 2
    16    8   16 1
    17    8   17 1
    18    9   10 1
    19    9   18 1
    20    9   19 1
    21   10   20 1
    22   10   21 1
