@<TRIPOS>MOLECULE
C43
   28    27     0     0     0
SMALL
USER_CHARGES

@<TRIPOS>ATOM
      1 C1          0.9960    0.4260    0.1710 C.3       1  C43       -0.0189 
      2 C2          1.2960    1.4110   -0.9490 C.3       1  C43       -0.0189 
      3 C3          1.0500    1.0490    1.5580 C.3       1  C43        0.0824 
      4 C4          1.2450    0.7880   -2.3360 C.3       1  C43        0.0824 
      5 C5          0.7520    0.0610    2.6740 C.3       1  C43       -0.0298 
      6 C6          1.5480    1.7750   -3.4510 C.3       1  C43       -0.0298 
      7 C7          0.8070    0.6830    4.0510 C.3       1  C43        0.1989 
      8 C8          1.4970    1.1520   -4.8280 C.3       1  C43        0.1989 
      9 O1          0.5160   -0.3250    4.9950 O.3       1  C43       -0.6079 
     10 O2          1.7930    2.1590   -5.7710 O.3       1  C43       -0.6079 
     11 H1          1.7080   -0.4120    0.1210 H         1  C43       -0.0072 
     12 H2          0.0000   -0.0170    0.0100 H         1  C43       -0.0072 
     13 H3          0.5820    2.2480   -0.9000 H         1  C43       -0.0072 
     14 H4          2.2900    1.8560   -0.7870 H         1  C43       -0.0072 
     15 H5          2.0450    1.4940    1.7160 H         1  C43       -0.0074 
     16 H6          0.3350    1.8860    1.6060 H         1  C43       -0.0074 
     17 H7          0.2490    0.3450   -2.4960 H         1  C43       -0.0074 
     18 H8          1.9580   -0.0500   -2.3810 H         1  C43       -0.0074 
     19 H9         -0.2450   -0.3810    2.5350 H         1  C43        0.0091 
     20 H10         1.4670   -0.7740    2.6430 H         1  C43        0.0091 
     21 H11         0.8340    2.6100   -3.4240 H         1  C43        0.0091 
     22 H12         2.5450    2.2160   -3.3090 H         1  C43        0.0091 
     23 H13         1.8090    1.1170    4.2210 H         1  C43        0.0021 
     24 H14         0.0820    1.5140    4.1110 H         1  C43        0.0021 
     25 H15         2.2220    0.3190   -4.8850 H         1  C43        0.0021 
     26 H16         0.4950    0.7180   -5.0010 H         1  C43        0.0021 
     27 H17         0.5510    0.0700    5.8710 H         1  C43        0.3822 
     28 H18         1.7600    1.7630   -6.6470 H         1  C43        0.3822 
@<TRIPOS>BOND
     1    1    2 1
     2    1    3 1
     3    1   11 1
     4    1   12 1
     5    2    4 1
     6    2   13 1
     7    2   14 1
     8    3    5 1
     9    3   15 1
    10    3   16 1
    11    4    6 1
    12    4   17 1
    13    4   18 1
    14    5    7 1
    15    5   19 1
    16    5   20 1
    17    6    8 1
    18    6   21 1
    19    6   22 1
    20    7    9 1
    21    7   23 1
    22    7   24 1
    23    8   10 1
    24    8   25 1
    25    8   26 1
    26    9   27 1
    27   10   28 1
