@<TRIPOS>MOLECULE
C44
   28    27     0     0     0
SMALL
USER_CHARGES

@<TRIPOS>ATOM
      1 C1         -0.0030   -0.9420    0.5200 C.3       1  C44       -0.3574 
      2 C2         -0.9290   -0.1730    2.7080 C.3       1  C44       -0.3574 
      3 C3          4.4890   -0.0760    3.3340 C.3       1  C44       -0.3574 
      4 C4          3.5640    0.6930    5.5220 C.3       1  C44       -0.3574 
      5 C5          1.5780   -0.1530    2.2900 C.3       1  C44        0.0078 
      6 C6          1.9830   -0.0950    3.7530 C.3       1  C44        0.0078 
      7 C7          0.2420   -0.8590    2.0220 C.3       1  C44        0.5237 
      8 C8          3.3190    0.6100    4.0200 C.3       1  C44        0.5237 
      9 O1          0.2700   -2.1770    2.5730 O.3       1  C44       -0.6595 
     10 O2          3.2910    1.9280    3.4690 O.3       1  C44       -0.6595 
     11 H1          0.8270   -1.4610    0.0210 H         1  C44        0.0855 
     12 H2         -0.9260   -1.4970    0.3170 H         1  C44        0.0855 
     13 H3         -0.0870    0.0550    0.0710 H         1  C44        0.0855 
     14 H4         -0.8220   -0.2190    3.7960 H         1  C44        0.0855 
     15 H5         -1.8640   -0.6790    2.4430 H         1  C44        0.0855 
     16 H6         -1.0000    0.8770    2.4020 H         1  C44        0.0855 
     17 H7          4.3820   -0.0300    2.2460 H         1  C44        0.0855 
     18 H8          4.5600   -1.1270    3.6400 H         1  C44        0.0855 
     19 H9          5.4240    0.4300    3.5990 H         1  C44        0.0855 
     20 H10         2.7340    1.2120    6.0210 H         1  C44        0.0855 
     21 H11         4.4870    1.2470    5.7250 H         1  C44        0.0855 
     22 H12         3.6470   -0.3050    5.9710 H         1  C44        0.0855 
     23 H13         2.3480   -0.6930    1.7170 H         1  C44       -0.0142 
     24 H14         1.5540    0.8630    1.8760 H         1  C44       -0.0142 
     25 H15         2.0060   -1.1120    4.1670 H         1  C44       -0.0142 
     26 H16         1.2120    0.4440    4.3260 H         1  C44       -0.0142 
     27 H17         0.9600   -2.6630    2.1070 H         1  C44        0.3581 
     28 H18         2.6010    2.4140    3.9360 H         1  C44        0.3581 
@<TRIPOS>BOND
     1    1    7 1
     2    1   11 1
     3    1   12 1
     4    1   13 1
     5    2    7 1
     6    2   14 1
     7    2   15 1
     8    2   16 1
     9    3    8 1
    10    3   17 1
    11    3   18 1
    12    3   19 1
    13    4    8 1
    14    4   20 1
    15    4   21 1
    16    4   22 1
    17    5    6 1
    18    5    7 1
    19    5   23 1
    20    5   24 1
    21    6    8 1
    22    6   25 1
    23    6   26 1
    24    7    9 1
    25    8   10 1
    26    9   27 1
    27   10   28 1
