@<TRIPOS>MOLECULE
C45
   28    27     0     0     0
SMALL
USER_CHARGES

@<TRIPOS>ATOM
      1 C1          1.5000   -2.6880    3.8690 C.3       1  C45        0.3739 
      2 C2          6.2450    3.9700    6.4780 C.3       1  C45        0.3739 
      3 C3          2.3940   -2.0350    4.9060 C.3       1  C45        0.0911 
      4 C4          5.3260    3.3300    5.4550 C.3       1  C45        0.0911 
      5 C5          3.6730   -0.0460    5.4260 C.3       1  C45        0.2437 
      6 C6          4.0510    1.3370    4.9310 C.3       1  C45        0.2437 
      7 N1          1.0250   -3.9740    4.3560 N.3       1  C45       -1.0496 
      8 N2          6.6580    5.2900    6.0240 N.3       1  C45       -1.0496 
      9 N3          2.8210   -0.7220    4.4710 N.3       1  C45       -0.8925 
     10 N4          4.9060    2.0120    5.8860 N.3       1  C45       -0.8925 
     11 H1          2.0480   -2.7370    2.9060 H         1  C45       -0.0106 
     12 H2          0.6360   -2.0330    3.7000 H         1  C45       -0.0106 
     13 H3          7.0680    3.2640    6.6910 H         1  C45       -0.0106 
     14 H4          5.6910    4.0960    7.4210 H         1  C45       -0.0106 
     15 H5          1.8250   -1.9310    5.8400 H         1  C45        0.0459 
     16 H6          3.2430   -2.7140    5.1370 H         1  C45        0.0459 
     17 H7          4.4890    4.0230    5.2450 H         1  C45        0.0459 
     18 H8          5.8720    3.2140    4.5050 H         1  C45        0.0459 
     19 H9          3.1110    0.0490    6.3680 H         1  C45        0.0302 
     20 H10         4.5990   -0.6010    5.6740 H         1  C45        0.0302 
     21 H11         4.6120    1.2420    3.9880 H         1  C45        0.0302 
     22 H12         3.1260    1.8930    4.6850 H         1  C45        0.0302 
     23 H13         1.8040   -4.6280    4.3970 H         1  C45        0.3735 
     24 H14         0.3780   -4.3750    3.6830 H         1  C45        0.3735 
     25 H15         7.2860    5.1870    5.2290 H         1  C45        0.3735 
     26 H16         7.2190    5.7370    6.7450 H         1  C45        0.3735 
     27 H17         3.3270   -0.8160    3.5930 H         1  C45        0.3554 
     28 H18         4.4000    2.1040    6.7650 H         1  C45        0.3554 
@<TRIPOS>BOND
     1    1    3 1
     2    1    7 1
     3    1   11 1
     4    1   12 1
     5    2    4 1
     6    2    8 1
     7    2   13 1
     8    2   14 1
     9    3    9 1
    10    3   15 1
    11    3   16 1
    12    4   10 1
    13    4   17 1
    14    4   18 1
    15    5    6 1
    16    5    9 1
    17    5   19 1
    18    5   20 1
    19    6   10 1
    20    6   21 1
    21    6   22 1
    22    7   23 1
    23    7   24 1
    24    8   25 1
    25    8   26 1
    26    9   27 1
    27   10   28 1
