@<TRIPOS>MOLECULE
C46
   23    22     0     0     0
SMALL
USER_CHARGES

@<TRIPOS>ATOM
      1 C1          1.3910    1.0810   -1.8040 C.3       1  C46       -0.1116 
      2 C2          5.1620   -4.2510    2.1330 C.3       1  C46       -0.1116 
      3 C3          1.4610   -0.3830   -1.4030 C.3       1  C46        0.0963 
      4 C4          3.9800   -3.9450    1.2280 C.3       1  C46        0.0963 
      5 C5          2.6470   -0.7020   -0.5040 C.3       1  C46        0.0150 
      6 C6          3.9050   -2.4830    0.8130 C.3       1  C46        0.0150 
      7 C7          2.7240   -2.1640   -0.0920 C.3       1  C46        0.0258 
      8 H1          1.3050    1.7300   -0.9210 H         1  C46        0.0222 
      9 H2          0.5280    1.2840   -2.4500 H         1  C46        0.0222 
     10 H3          2.2940    1.3880   -2.3480 H         1  C46        0.0222 
     11 H4          6.1130   -4.0120    1.6380 H         1  C46        0.0222 
     12 H5          5.1180   -3.6590    3.0570 H         1  C46        0.0222 
     13 H6          5.1930   -5.3090    2.4180 H         1  C46        0.0222 
     14 H7          1.5140   -1.0110   -2.3060 H         1  C46       -0.0226 
     15 H8          0.5310   -0.6720   -0.8910 H         1  C46       -0.0226 
     16 H9          3.0440   -4.2240    1.7360 H         1  C46       -0.0226 
     17 H10         4.0320   -4.5740    0.3270 H         1  C46       -0.0226 
     18 H11         3.5790   -0.4190   -1.0180 H         1  C46       -0.0103 
     19 H12         2.5980   -0.0720    0.3980 H         1  C46       -0.0103 
     20 H13         3.8550   -1.8510    1.7140 H         1  C46       -0.0103 
     21 H14         4.8410   -2.2020    0.3030 H         1  C46       -0.0103 
     22 H15         1.7900   -2.4490    0.4170 H         1  C46       -0.0131 
     23 H16         2.7770   -2.7940   -0.9940 H         1  C46       -0.0131 
@<TRIPOS>BOND
     1    1    3 1
     2    1    8 1
     3    1    9 1
     4    1   10 1
     5    2    4 1
     6    2   11 1
     7    2   12 1
     8    2   13 1
     9    3    5 1
    10    3   14 1
    11    3   15 1
    12    4    6 1
    13    4   16 1
    14    4   17 1
    15    5    7 1
    16    5   18 1
    17    5   19 1
    18    6    7 1
    19    6   20 1
    20    6   21 1
    21    7   22 1
    22    7   23 1
