@<TRIPOS>MOLECULE
C47
   32    31     0     0     0
SMALL
USER_CHARGES

@<TRIPOS>ATOM
      1 C1          0.4110   -0.6810    0.3170 C.3       1  C47       -0.1574 
      2 C2         -7.0850   -8.7200   -2.9880 C.3       1  C47       -0.1574 
      3 C3         -0.3440   -1.9750    0.5760 C.3       1  C47        0.0790 
      4 C4         -6.3430   -7.4180   -3.2400 C.3       1  C47        0.0790 
      5 C5         -1.2840   -2.3580   -0.5580 C.3       1  C47        0.0133 
      6 C6         -5.4150   -7.0270   -2.0990 C.3       1  C47        0.0133 
      7 C7         -2.0430   -3.6530   -0.3110 C.3       1  C47        0.0133 
      8 C8         -4.6630   -5.7270   -2.3420 C.3       1  C47        0.0133 
      9 C9         -2.9780   -4.0390   -1.4480 C.3       1  C47        0.0401 
     10 C10        -3.7320   -5.3370   -1.2030 C.3       1  C47        0.0401 
     11 H1          1.0230   -0.7550   -0.5920 H         1  C47        0.0335 
     12 H2          1.0800   -0.4290    1.1480 H         1  C47        0.0335 
     13 H3         -0.2800    0.1610    0.1780 H         1  C47        0.0335 
     14 H4         -6.3860   -9.5550   -2.8460 H         1  C47        0.0335 
     15 H5         -7.7040   -8.6550   -2.0840 H         1  C47        0.0335 
     16 H6         -7.7450   -8.9790   -3.8250 H         1  C47        0.0335 
     17 H7         -0.9220   -1.8850    1.5080 H         1  C47       -0.0112 
     18 H8          0.3720   -2.7940    0.7440 H         1  C47       -0.0112 
     19 H9         -7.0660   -6.6070   -3.4110 H         1  C47       -0.0112 
     20 H10        -5.7580   -7.5000   -4.1690 H         1  C47       -0.0112 
     21 H11        -0.7080   -2.4460   -1.4930 H         1  C47       -0.0022 
     22 H12        -2.0030   -1.5410   -0.7260 H         1  C47       -0.0022 
     23 H13        -4.6910   -7.8390   -1.9250 H         1  C47       -0.0022 
     24 H14        -5.9990   -6.9420   -1.1690 H         1  C47       -0.0022 
     25 H15        -2.6220   -3.5630    0.6210 H         1  C47       -0.0112 
     26 H16        -1.3230   -4.4690   -0.1390 H         1  C47       -0.0112 
     27 H17        -5.3870   -4.9140   -2.5130 H         1  C47       -0.0112 
     28 H18        -4.0820   -5.8110   -3.2740 H         1  C47       -0.0112 
     29 H19        -2.4000   -4.1250   -2.3810 H         1  C47       -0.0198 
     30 H20        -3.7000   -3.2250   -1.6170 H         1  C47       -0.0198 
     31 H21        -4.3140   -5.2500   -0.2720 H         1  C47       -0.0198 
     32 H22        -3.0100   -6.1510   -1.0290 H         1  C47       -0.0198 
@<TRIPOS>BOND
     1    1    3 1
     2    1   11 1
     3    1   12 1
     4    1   13 1
     5    2    4 1
     6    2   14 1
     7    2   15 1
     8    2   16 1
     9    3    5 1
    10    3   17 1
    11    3   18 1
    12    4    6 1
    13    4   19 1
    14    4   20 1
    15    5    7 1
    16    5   21 1
    17    5   22 1
    18    6    8 1
    19    6   23 1
    20    6   24 1
    21    7    9 1
    22    7   25 1
    23    7   26 1
    24    8   10 1
    25    8   27 1
    26    8   28 1
    27    9   10 1
    28    9   29 1
    29    9   30 1
    30   10   31 1
    31   10   32 1
