@<TRIPOS>MOLECULE
C48
   26    25     0     0     0
SMALL
USER_CHARGES

@<TRIPOS>ATOM
      1 C1          0.7040   -0.9910    0.8080 C.3       1  C48       -0.1331 
      2 C2          1.1740    5.2530    7.1880 C.3       1  C48       -0.1331 
      3 C3          0.3930   -0.4750    2.2030 C.3       1  C48        0.1333 
      4 C4          1.4840    4.7370    5.7920 C.3       1  C48        0.1333 
      5 C5          0.9590    0.9120    2.4700 C.3       1  C48        0.0223 
      6 C6          0.9160    3.3510    5.5250 C.3       1  C48        0.0223 
      7 C7          0.6540    1.4380    3.8640 C.3       1  C48        0.0352 
      8 C8          1.2200    2.8250    4.1300 C.3       1  C48        0.0352 
      9 H1          1.7880   -1.0520    0.6400 H         1  C48        0.0247 
     10 H2          0.2860   -1.9910    0.6420 H         1  C48        0.0247 
     11 H3          0.2910   -0.3260    0.0380 H         1  C48        0.0247 
     12 H4          1.5870    4.5860    7.9570 H         1  C48        0.0247 
     13 H5          0.0910    5.3140    7.3570 H         1  C48        0.0247 
     14 H6          1.5940    6.2520    7.3540 H         1  C48        0.0247 
     15 H7         -0.6970   -0.4560    2.3560 H         1  C48       -0.0309 
     16 H8          0.7890   -1.1770    2.9530 H         1  C48       -0.0309 
     17 H9          1.0880    5.4400    5.0430 H         1  C48       -0.0309 
     18 H10         2.5730    4.7170    5.6390 H         1  C48       -0.0309 
     19 H11         2.0500    0.8940    2.3180 H         1  C48       -0.0167 
     20 H12         0.5630    1.6150    1.7200 H         1  C48       -0.0167 
     21 H13         1.3110    2.6460    6.2740 H         1  C48       -0.0167 
     22 H14        -0.1750    3.3700    5.6770 H         1  C48       -0.0167 
     23 H15        -0.4370    1.4560    4.0150 H         1  C48       -0.0183 
     24 H16         1.0480    0.7340    4.6130 H         1  C48       -0.0183 
     25 H17         0.8250    3.5300    3.3820 H         1  C48       -0.0183 
     26 H18         2.3110    2.8080    3.9780 H         1  C48       -0.0183 
@<TRIPOS>BOND
     1    1    3 1
     2    1    9 1
     3    1   10 1
     4    1   11 1
     5    2    4 1
     6    2   12 1
     7    2   13 1
     8    2   14 1
     9    3    5 1
    10    3   15 1
    11    3   16 1
    12    4    6 1
    13    4   17 1
    14    4   18 1
    15    5    7 1
    16    5   19 1
    17    5   20 1
    18    6    8 1
    19    6   21 1
    20    6   22 1
    21    7    8 1
    22    7   23 1
    23    7   24 1
    24    8   25 1
    25    8   26 1
