@<TRIPOS>MOLECULE
C49
   12    12     0     0     0
SMALL
USER_CHARGES

@<TRIPOS>ATOM
      1 C1          1.8850   -1.0360   -0.1090 C.ar       1  C49       -0.1393 
      2 C2          0.8090   -0.4650    0.5630 C.ar       1  C49       -0.1393 
      3 C3          2.9180   -1.6290    0.6100 C.ar       1  C49       -0.1393 
      4 C4          0.7670   -0.4860    1.9530 C.ar       1  C49       -0.1393 
      5 C5          2.8760   -1.6500    2.0000 C.ar       1  C49       -0.1393 
      6 C6          1.8000   -1.0790    2.6720 C.ar       1  C49       -0.1393 
      7 H1          1.9180   -1.0200   -1.1960 H         1  C49        0.1393 
      8 H2          0.0010   -0.0010    0.0010 H         1  C49        0.1393 
      9 H3          3.7600   -2.0770    0.0850 H         1  C49        0.1393 
     10 H4         -0.0750   -0.0380    2.4790 H         1  C49        0.1393 
     11 H5          3.6840   -2.1140    2.5620 H         1  C49        0.1393 
     12 H6          1.7660   -1.0950    3.7600 H         1  C49        0.1393 
@<TRIPOS>BOND
     1    1    2 ar
     2    1    3 ar
     3    1    7 1
     4    2    4 ar
     5    2    8 1
     6    3    5 ar
     7    3    9 1
     8    4    6 ar
     9    4   10 1
    10    5    6 ar
    11    5   11 1
    12    6   12 1
