@<TRIPOS>MOLECULE
C50
   28    27     0     0     0
SMALL
USER_CHARGES

@<TRIPOS>ATOM
      1 C1         -3.7380    4.8300   -0.8280 C.3       1  C50       -0.2143 
      2 C2          1.2750    2.5370    7.4760 C.3       1  C50       -0.2143 
      3 C3         -3.6360    3.8350    0.3160 C.3       1  C50        0.2778 
      4 C4          0.1370    2.1090    6.5640 C.3       1  C50        0.2778 
      5 C5         -2.5360    4.1790    1.3090 C.3       1  C50        0.0298 
      6 C6         -0.0720    3.0520    5.3890 C.3       1  C50        0.0298 
      7 C7         -2.4350    3.1980    2.4620 C.3       1  C50        0.1209 
      8 C8         -1.2160    2.6410    4.4810 C.3       1  C50        0.1209 
      9 N1         -1.3340    3.5310    3.3430 N.3       1  C50       -0.7564 
     10 H1         -2.7980    4.8820   -1.3930 H         1  C50        0.0406 
     11 H2         -4.5350    4.5590   -1.5300 H         1  C50        0.0406 
     12 H3         -3.9520    5.8410   -0.4550 H         1  C50        0.0406 
     13 H4          1.0910    3.5340    7.8980 H         1  C50        0.0406 
     14 H5          1.4070    1.8410    8.3120 H         1  C50        0.0406 
     15 H6          2.2250    2.5840    6.9270 H         1  C50        0.0406 
     16 H7         -4.5990    3.7790    0.8450 H         1  C50       -0.0669 
     17 H8         -3.4550    2.8270   -0.0870 H         1  C50       -0.0669 
     18 H9          0.3310    1.0950    6.1830 H         1  C50       -0.0669 
     19 H10        -0.7950    2.0390    7.1450 H         1  C50       -0.0669 
     20 H11        -1.5620    4.2200    0.7990 H         1  C50       -0.0272 
     21 H12        -2.7140    5.1910    1.7100 H         1  C50       -0.0272 
     22 H13        -0.2620    4.0690    5.7700 H         1  C50       -0.0272 
     23 H14         0.8450    3.1180    4.7870 H         1  C50       -0.0272 
     24 H15        -2.2550    2.1860    2.0660 H         1  C50        0.0227 
     25 H16        -3.4100    3.1460    2.9910 H         1  C50        0.0227 
     26 H17        -2.1530    2.5710    5.0730 H         1  C50        0.0227 
     27 H18        -1.0290    1.6260    4.0960 H         1  C50        0.0227 
     28 H19        -1.4660    4.4810    3.6860 H         1  C50        0.3697 
@<TRIPOS>BOND
     1    1    3 1
     2    1   10 1
     3    1   11 1
     4    1   12 1
     5    2    4 1
     6    2   13 1
     7    2   14 1
     8    2   15 1
     9    3    5 1
    10    3   16 1
    11    3   17 1
    12    4    6 1
    13    4   18 1
    14    4   19 1
    15    5    7 1
    16    5   20 1
    17    5   21 1
    18    6    8 1
    19    6   22 1
    20    6   23 1
    21    7    9 1
    22    7   24 1
    23    7   25 1
    24    8    9 1
    25    8   26 1
    26    8   27 1
    27    9   28 1
