@<TRIPOS>MOLECULE
C51
   40    39     0     0     0
SMALL
USER_CHARGES

@<TRIPOS>ATOM
      1 C1         -4.6530    1.0380    4.6900 C.3       1  C51       -0.3841 
      2 C2         -2.9780    6.9670    5.8190 C.3       1  C51       -0.3841 
      3 C3          1.0230    2.3080    6.9680 C.3       1  C51       -0.3841 
      4 C4         -3.7850    2.2210    4.2970 C.3       1  C51        0.2191 
      5 C5         -2.0800    5.8820    5.2490 C.3       1  C51        0.2191 
      6 C6          0.0710    2.3890    5.7860 C.3       1  C51        0.2191 
      7 C7         -3.1630    2.0680    2.9170 C.3       1  C51        0.0203 
      8 C8         -1.8150    6.0510    3.7610 C.3       1  C51        0.0203 
      9 C9          0.7760    2.7150    4.4780 C.3       1  C51        0.0203 
     10 C10        -2.3520    3.2790    2.4730 C.3       1  C51       -0.0838 
     11 C11        -0.8510    5.0200    3.1880 C.3       1  C51       -0.0838 
     12 C12        -0.1500    2.7180    3.2680 C.3       1  C51       -0.0838 
     13 N1         -1.2730    3.6390    3.3820 N.3       1  C51        0.0851 
     14 H1         -4.0720    0.1060    4.7000 H         1  C51        0.0824 
     15 H2         -5.0860    1.1670    5.6900 H         1  C51        0.0824 
     16 H3         -5.4830    0.8970    3.9840 H         1  C51        0.0824 
     17 H4         -3.9550    6.9780    5.3170 H         1  C51        0.0824 
     18 H5         -3.1580    6.8220    6.8910 H         1  C51        0.0824 
     19 H6         -2.5340    7.9640    5.6890 H         1  C51        0.0824 
     20 H7          1.5530    3.2590    7.1150 H         1  C51        0.0824 
     21 H8          0.4930    2.0780    7.9000 H         1  C51        0.0824 
     22 H9          1.7840    1.5300    6.8170 H         1  C51        0.0824 
     23 H10        -4.3820    3.1470    4.3220 H         1  C51       -0.0373 
     24 H11        -2.9830    2.3630    5.0330 H         1  C51       -0.0373 
     25 H12        -1.1190    5.8730    5.7860 H         1  C51       -0.0373 
     26 H13        -2.5280    4.8930    5.4190 H         1  C51       -0.0373 
     27 H14        -0.4690    1.4350    5.6760 H         1  C51       -0.0373 
     28 H15        -0.6990    3.1500    5.9730 H         1  C51       -0.0373 
     29 H16        -2.5450    1.1580    2.8960 H         1  C51        0.0020 
     30 H17        -3.9530    1.9020    2.1690 H         1  C51        0.0020 
     31 H18        -2.7720    6.0330    3.2170 H         1  C51        0.0020 
     32 H19        -1.3900    7.0480    3.5690 H         1  C51        0.0020 
     33 H20         1.2930    3.6810    4.5740 H         1  C51        0.0020 
     34 H21         1.5700    1.9770    4.2890 H         1  C51        0.0020 
     35 H22        -3.0330    4.1370    2.4110 H         1  C51        0.0117 
     36 H23        -1.9670    3.1160    1.4440 H         1  C51        0.0117 
     37 H24         0.1150    5.1450    3.6920 H         1  C51        0.0117 
     38 H25        -0.6690    5.2320    2.1140 H         1  C51        0.0117 
     39 H26        -0.5600    1.7070    3.1540 H         1  C51        0.0117 
     40 H27         0.4360    2.9190    2.3470 H         1  C51        0.0117 
@<TRIPOS>BOND
     1    1    4 1
     2    1   14 1
     3    1   15 1
     4    1   16 1
     5    2    5 1
     6    2   17 1
     7    2   18 1
     8    2   19 1
     9    3    6 1
    10    3   20 1
    11    3   21 1
    12    3   22 1
    13    4    7 1
    14    4   23 1
    15    4   24 1
    16    5    8 1
    17    5   25 1
    18    5   26 1
    19    6    9 1
    20    6   27 1
    21    6   28 1
    22    7   10 1
    23    7   29 1
    24    7   30 1
    25    8   11 1
    26    8   31 1
    27    8   32 1
    28    9   12 1
    29    9   33 1
    30    9   34 1
    31   10   13 1
    32   10   35 1
    33   10   36 1
    34   11   13 1
    35   11   37 1
    36   11   38 1
    37   12   13 1
    38   12   39 1
    39   12   40 1
