@<TRIPOS>MOLECULE
C52
   16    15     0     0     0
SMALL
USER_CHARGES

@<TRIPOS>ATOM
      1 C1          0.9690   -0.4270   -0.3690 C.3       1  C52        0.0522 
      2 C2          2.0740    0.5930   -0.1540 C.3       1  C52        0.0522 
      3 C3          0.8090   -0.8260   -1.8190 C.3       1  C52        0.1854 
      4 C4          2.2340    0.9910    1.2950 C.3       1  C52        0.1854 
      5 O1         -0.2380   -1.7690   -1.8930 O.3       1  C52       -0.6099 
      6 O2          3.2810    1.9350    1.3700 O.3       1  C52       -0.6099 
      7 H1          1.1660   -1.3360    0.2170 H         1  C52       -0.0137 
      8 H2          0.0070   -0.0310   -0.0140 H         1  C52       -0.0137 
      9 H3          1.8770    1.5020   -0.7400 H         1  C52       -0.0137 
     10 H4          3.0370    0.1970   -0.5090 H         1  C52       -0.0137 
     11 H5          0.5900    0.0710   -2.4270 H         1  C52        0.0147 
     12 H6          1.7600   -1.2460   -2.1940 H         1  C52        0.0147 
     13 H7          2.4530    0.0950    1.9040 H         1  C52        0.0147 
     14 H8          1.2830    1.4110    1.6700 H         1  C52        0.0147 
     15 H9         -0.3410   -2.0240   -2.8150 H         1  C52        0.3703 
     16 H10         3.3840    2.1900    2.2920 H         1  C52        0.3703 
@<TRIPOS>BOND
     1    1    2 1
     2    1    3 1
     3    1    7 1
     4    1    8 1
     5    2    4 1
     6    2    9 1
     7    2   10 1
     8    3    5 1
     9    3   11 1
    10    3   12 1
    11    4    6 1
    12    4   13 1
    13    4   14 1
    14    5   15 1
    15    6   16 1
