@<TRIPOS>MOLECULE
C53
   50    49     0     0     0
SMALL
USER_CHARGES

@<TRIPOS>ATOM
      1 C1         -2.8580   -3.6550   -7.4230 C.3       1  C53       -0.1993 
      2 C2         -2.2610    5.3300    9.4260 C.3       1  C53       -0.1993 
      3 C3         -2.6080   -2.3790   -6.6370 C.3       1  C53        0.1252 
      4 C4         -2.5070    4.0520    8.6410 C.3       1  C53        0.1252 
      5 C5         -2.8020   -2.5500   -5.1380 C.3       1  C53        0.0039 
      6 C6         -2.3080    4.2230    7.1420 C.3       1  C53        0.0039 
      7 C7         -2.5540   -1.2790   -4.3400 C.3       1  C53        0.0179 
      8 C8         -2.5520    2.9510    6.3440 C.3       1  C53        0.0179 
      9 C9         -2.7480   -1.4510   -2.8410 C.3       1  C53        0.0409 
     10 C10        -2.3540    3.1210    4.8460 C.3       1  C53        0.0409 
     11 C11        -2.5010   -0.1790   -2.0430 C.3       1  C53        0.0449 
     12 C12        -2.5990    1.8490    4.0480 C.3       1  C53        0.0449 
     13 C13        -2.6960   -0.3510   -0.5440 C.3       1  C53        0.0342 
     14 C14        -2.4010    2.0210    2.5500 C.3       1  C53        0.0342 
     15 C15        -2.4500    0.9210    0.2530 C.3       1  C53        0.0405 
     16 C16        -2.6470    0.7490    1.7520 C.3       1  C53        0.0405 
     17 H1         -3.8840   -4.0170   -7.2750 H         1  C53        0.0409 
     18 H2         -2.1790   -4.4570   -7.1040 H         1  C53        0.0409 
     19 H3         -2.7120   -3.5040   -8.4990 H         1  C53        0.0409 
     20 H4         -1.2350    5.6930    9.2810 H         1  C53        0.0409 
     21 H5         -2.4110    5.1790   10.5020 H         1  C53        0.0409 
     22 H6         -2.9400    6.1300    9.1050 H         1  C53        0.0409 
     23 H7         -1.5850   -2.0200   -6.8300 H         1  C53       -0.0180 
     24 H8         -3.2780   -1.5840   -6.9990 H         1  C53       -0.0180 
     25 H9         -3.5300    3.6930    8.8300 H         1  C53       -0.0180 
     26 H10        -1.8370    3.2590    9.0050 H         1  C53       -0.0180 
     27 H11        -3.8250   -2.9090   -4.9430 H         1  C53       -0.0046 
     28 H12        -2.1320   -3.3450   -4.7730 H         1  C53       -0.0046 
     29 H13        -2.9780    5.0170    6.7750 H         1  C53       -0.0046 
     30 H14        -1.2850    4.5820    6.9500 H         1  C53       -0.0046 
     31 H15        -3.2240   -0.4840   -4.7050 H         1  C53       -0.0147 
     32 H16        -1.5310   -0.9210   -4.5350 H         1  C53       -0.0147 
     33 H17        -3.5750    2.5910    6.5370 H         1  C53       -0.0147 
     34 H18        -1.8820    2.1570    6.7120 H         1  C53       -0.0147 
     35 H19        -2.0780   -2.2450   -2.4760 H         1  C53       -0.0198 
     36 H20        -3.7710   -1.8090   -2.6460 H         1  C53       -0.0198 
     37 H21        -1.3310    3.4800    4.6530 H         1  C53       -0.0198 
     38 H22        -3.0240    3.9150    4.4780 H         1  C53       -0.0198 
     39 H23        -1.4780    0.1790   -2.2380 H         1  C53       -0.0195 
     40 H24        -3.1710    0.6150   -2.4090 H         1  C53       -0.0195 
     41 H25        -3.6220    1.4900    4.2420 H         1  C53       -0.0195 
     42 H26        -1.9290    1.0550    4.4150 H         1  C53       -0.0195 
     43 H27        -3.7190   -0.7100   -0.3500 H         1  C53       -0.0195 
     44 H28        -2.0260   -1.1450   -0.1790 H         1  C53       -0.0195 
     45 H29        -1.3780    2.3790    2.3560 H         1  C53       -0.0195 
     46 H30        -3.0710    2.8150    2.1830 H         1  C53       -0.0195 
     47 H31        -1.4270    1.2790    0.0590 H         1  C53       -0.0193 
     48 H32        -3.1200    1.7150   -0.1130 H         1  C53       -0.0193 
     49 H33        -3.6700    0.3900    1.9460 H         1  C53       -0.0193 
     50 H34        -1.9770   -0.0450    2.1180 H         1  C53       -0.0193 
@<TRIPOS>BOND
     1    1    3 1
     2    1   17 1
     3    1   18 1
     4    1   19 1
     5    2    4 1
     6    2   20 1
     7    2   21 1
     8    2   22 1
     9    3    5 1
    10    3   23 1
    11    3   24 1
    12    4    6 1
    13    4   25 1
    14    4   26 1
    15    5    7 1
    16    5   27 1
    17    5   28 1
    18    6    8 1
    19    6   29 1
    20    6   30 1
    21    7    9 1
    22    7   31 1
    23    7   32 1
    24    8   10 1
    25    8   33 1
    26    8   34 1
    27    9   11 1
    28    9   35 1
    29    9   36 1
    30   10   12 1
    31   10   37 1
    32   10   38 1
    33   11   13 1
    34   11   39 1
    35   11   40 1
    36   12   14 1
    37   12   41 1
    38   12   42 1
    39   13   15 1
    40   13   43 1
    41   13   44 1
    42   14   16 1
    43   14   45 1
    44   14   46 1
    45   15   16 1
    46   15   47 1
    47   15   48 1
    48   16   49 1
    49   16   50 1
