@<TRIPOS>MOLECULE
C54
   14    13     0     0     0
SMALL
USER_CHARGES

@<TRIPOS>ATOM
      1 C1          1.0150    0.5130   -0.0290 C.3       1  C54        0.0578 
      2 C2          0.9020    0.2950   -2.5240 C.3       1  C54        0.0578 
      3 C3          1.1510    1.2250   -1.3520 C.3       1  C54        0.1287 
      4 O1          0.8910    1.4820    0.9840 O.3       1  C54       -0.6172 
      5 O2          1.1960    1.0540   -3.6840 O.3       1  C54       -0.6172 
      6 O3          2.4490    1.7580   -1.4500 O.3       1  C54       -0.6318 
      7 H1          1.9100   -0.1170    0.1080 H         1  C54        0.0749 
      8 H2          0.1300   -0.1500   -0.0660 H         1  C54        0.0749 
      9 H3         -0.1420   -0.0580   -2.5270 H         1  C54        0.0749 
     10 H4          1.5700   -0.5790   -2.4430 H         1  C54        0.0749 
     11 H5          0.3930    2.0300   -1.3780 H         1  C54        0.0839 
     12 H6          0.9880    1.0390    1.8310 H         1  C54        0.4123 
     13 H7          1.2990    0.4530   -4.4270 H         1  C54        0.4123 
     14 H8          2.5420    2.0000   -2.3820 H         1  C54        0.4140 
@<TRIPOS>BOND
     1    1    3 1
     2    1    4 1
     3    1    7 1
     4    1    8 1
     5    2    3 1
     6    2    5 1
     7    2    9 1
     8    2   10 1
     9    3    6 1
    10    3   11 1
    11    4   12 1
    12    5   13 1
    13    6   14 1
