@<TRIPOS>MOLECULE
C55
   17    17     0     0     0
SMALL
USER_CHARGES

@<TRIPOS>ATOM
      1 C1          1.2830    0.0480   -0.7490 C.3       1  C55        0.1586 
      2 C2         -0.0070    0.6090   -1.3370 C.3       1  C55        0.0175 
      3 C3          1.2450    0.0980    0.7750 C.3       1  C55        0.0175 
      4 C4         -1.2190   -0.0930   -0.7290 C.3       1  C55        0.0304 
      5 C5         -0.0170   -0.5830    1.2990 C.3       1  C55        0.0304 
      6 N1         -1.2520   -0.0680    0.7260 N.3       1  C55       -0.8563 
      7 H1          1.3970   -1.0000   -1.0700 H         1  C55       -0.0390 
      8 H2          2.1560    0.5890   -1.1360 H         1  C55       -0.0390 
      9 H3         -0.0710    1.6870   -1.1200 H         1  C55       -0.0076 
     10 H4         -0.0160    0.5070   -2.4310 H         1  C55       -0.0076 
     11 H5          2.1400   -0.3720    1.2040 H         1  C55       -0.0076 
     12 H6          1.2490    1.1490    1.1070 H         1  C55       -0.0076 
     13 H7         -2.1540    0.3410   -1.1080 H         1  C55        0.0736 
     14 H8         -1.2170   -1.1500   -1.0400 H         1  C55        0.0736 
     15 H9          0.0310   -1.6590    1.0640 H         1  C55        0.0736 
     16 H10        -0.0780   -0.5060    2.3920 H         1  C55        0.0736 
     17 H11        -1.3750    0.8960    1.0320 H         1  C55        0.4159 
@<TRIPOS>BOND
     1    1    2 1
     2    1    3 1
     3    1    7 1
     4    1    8 1
     5    2    4 1
     6    2    9 1
     7    2   10 1
     8    3    5 1
     9    3   11 1
    10    3   12 1
    11    4    6 1
    12    4   13 1
    13    4   14 1
    14    5    6 1
    15    5   15 1
    16    5   16 1
    17    6   17 1
