@<TRIPOS>MOLECULE
C56
   76    75     0     0     0
SMALL
USER_CHARGES

@<TRIPOS>ATOM
      1 C1          7.0200    7.6010    6.1080 C.3       1  C56       -0.1865 
      2 C2         10.3450    7.1410    0.8740 C.3       1  C56       -0.1865 
      3 C3         12.2200    2.0310    0.3230 C.3       1  C56       -0.1865 
      4 C4          7.0430    6.9390    4.7400 C.3       1  C56        0.1034 
      5 C5          9.6660    8.3700    0.2920 C.3       1  C56        0.1034 
      6 C6         11.2130    3.1040   -0.0560 C.3       1  C56        0.1034 
      7 C7          5.6880    6.9430    4.0480 C.3       1  C56        0.0471 
      8 C8          8.6880    8.0390   -0.8260 C.3       1  C56        0.0471 
      9 C9         10.0020    2.5550   -0.7960 C.3       1  C56        0.0471 
     10 C10         5.7070    6.2920    2.6740 C.3       1  C56        0.0206 
     11 C11         8.0000    9.2660   -1.4120 C.3       1  C56        0.0206 
     12 C12         8.9900    3.6220   -1.1850 C.3       1  C56        0.0206 
     13 C13         4.3600    6.2990    1.9660 C.3       1  C56       -0.0129 
     14 C14         7.0710    8.9720   -2.5860 C.3       1  C56       -0.0129 
     15 C15         7.7730    3.0770   -1.9180 C.3       1  C56       -0.0129 
     16 C16         4.4130    5.6730    0.5810 C.3       1  C56        0.1501 
     17 C17         5.8950    8.0770   -2.2270 C.3       1  C56        0.1501 
     18 C18         6.7780    4.1580   -2.3120 C.3       1  C56        0.1501 
     19 C19         3.0930    5.7230   -0.1740 C.3       1  C56        0.0014 
     20 C20         4.9320    7.8170   -3.3750 C.3       1  C56        0.0014 
     21 C21         5.5220    3.6220   -2.9830 C.3       1  C56        0.0014 
     22 C22         3.1570    5.0680   -1.5490 C.3       1  C56       -0.0748 
     23 C23         3.7590    6.9310   -2.9690 C.3       1  C56       -0.0748 
     24 C24         4.5810    4.7180   -3.4690 C.3       1  C56       -0.0748 
     25 N1          4.1680    5.6440   -2.4250 N.3       1  C56       -0.3488 
     26 H1          6.7010    8.6490    6.0370 H         1  C56        0.0374 
     27 H2          6.3190    7.0920    6.7830 H         1  C56        0.0374 
     28 H3          8.0090    7.5850    6.5830 H         1  C56        0.0374 
     29 H4          9.6090    6.4430    1.2960 H         1  C56        0.0374 
     30 H5         10.9060    6.5950    0.1040 H         1  C56        0.0374 
     31 H6         11.0470    7.4050    1.6740 H         1  C56        0.0374 
     32 H7         11.7660    1.2720    0.9730 H         1  C56        0.0374 
     33 H8         12.6010    1.5120   -0.5670 H         1  C56        0.0374 
     34 H9         13.0810    2.4530    0.8550 H         1  C56        0.0374 
     35 H10         7.3960    5.9010    4.8370 H         1  C56       -0.0148 
     36 H11         7.7780    7.4460    4.0970 H         1  C56       -0.0148 
     37 H12        10.4270    9.0690   -0.0870 H         1  C56       -0.0148 
     38 H13         9.1330    8.9100    1.0900 H         1  C56       -0.0148 
     39 H14        11.7020    3.8660   -0.6820 H         1  C56       -0.0148 
     40 H15        10.8750    3.6320    0.8480 H         1  C56       -0.0148 
     41 H16         4.9510    6.4310    4.6860 H         1  C56       -0.0116 
     42 H17         5.3320    7.9820    3.9530 H         1  C56       -0.0116 
     43 H18         9.2200    7.5030   -1.6290 H         1  C56       -0.0116 
     44 H19         7.9370    7.3320   -0.4420 H         1  C56       -0.0116 
     45 H20        10.3380    2.0230   -1.7000 H         1  C56       -0.0116 
     46 H21         9.5070    1.7970   -0.1690 H         1  C56       -0.0116 
     47 H22         6.4480    6.8060    2.0400 H         1  C56       -0.0235 
     48 H23         6.0640    5.2540    2.7670 H         1  C56       -0.0235 
     49 H24         7.4300    9.7740   -0.6170 H         1  C56       -0.0235 
     50 H25         8.7700    9.9820   -1.7340 H         1  C56       -0.0235 
     51 H26         8.6570    4.1560   -0.2810 H         1  C56       -0.0235 
     52 H27         9.4840    4.3810   -1.8130 H         1  C56       -0.0235 
     53 H28         3.6150    5.7750    2.5850 H         1  C56       -0.0152 
     54 H29         4.0030    7.3380    1.8810 H         1  C56       -0.0152 
     55 H30         6.6960    9.9220   -2.9950 H         1  C56       -0.0152 
     56 H31         7.6500    8.5020   -3.3970 H         1  C56       -0.0152 
     57 H32         8.1010    2.5290   -2.8160 H         1  C56       -0.0152 
     58 H33         7.2700    2.3330   -1.2800 H         1  C56       -0.0152 
     59 H34         4.7460    4.6260    0.6620 H         1  C56       -0.0256 
     60 H35         5.1770    6.1850   -0.0190 H         1  C56       -0.0256 
     61 H36         5.3420    8.5210   -1.3820 H         1  C56       -0.0256 
     62 H37         6.2590    7.1060   -1.8710 H         1  C56       -0.0256 
     63 H38         7.2700    4.8820   -2.9820 H         1  C56       -0.0256 
     64 H39         6.4860    4.7290   -1.4200 H         1  C56       -0.0256 
     65 H40         2.7660    6.7700   -0.2630 H         1  C56        0.0084 
     66 H41         2.3060    5.2190    0.4060 H         1  C56        0.0084 
     67 H42         5.4810    7.3630   -4.2140 H         1  C56        0.0084 
     68 H43         4.5300    8.7640   -3.7630 H         1  C56        0.0084 
     69 H44         5.0010    2.9440   -2.2920 H         1  C56        0.0084 
     70 H45         5.7950    3.0040   -3.8520 H         1  C56        0.0084 
     71 H46         2.1550    5.0890   -2.0240 H         1  C56        0.0601 
     72 H47         3.4060    4.0090   -1.4080 H         1  C56        0.0601 
     73 H48         3.0630    6.8040   -3.8240 H         1  C56        0.0601 
     74 H49         3.1920    7.4570   -2.1900 H         1  C56        0.0601 
     75 H50         3.7030    4.2660   -3.9750 H         1  C56        0.0601 
     76 H51         5.1080    5.3000   -4.2360 H         1  C56        0.0601 
@<TRIPOS>BOND
     1    1    4 1
     2    1   26 1
     3    1   27 1
     4    1   28 1
     5    2    5 1
     6    2   29 1
     7    2   30 1
     8    2   31 1
     9    3    6 1
    10    3   32 1
    11    3   33 1
    12    3   34 1
    13    4    7 1
    14    4   35 1
    15    4   36 1
    16    5    8 1
    17    5   37 1
    18    5   38 1
    19    6    9 1
    20    6   39 1
    21    6   40 1
    22    7   10 1
    23    7   41 1
    24    7   42 1
    25    8   11 1
    26    8   43 1
    27    8   44 1
    28    9   12 1
    29    9   45 1
    30    9   46 1
    31   10   13 1
    32   10   47 1
    33   10   48 1
    34   11   14 1
    35   11   49 1
    36   11   50 1
    37   12   15 1
    38   12   51 1
    39   12   52 1
    40   13   16 1
    41   13   53 1
    42   13   54 1
    43   14   17 1
    44   14   55 1
    45   14   56 1
    46   15   18 1
    47   15   57 1
    48   15   58 1
    49   16   19 1
    50   16   59 1
    51   16   60 1
    52   17   20 1
    53   17   61 1
    54   17   62 1
    55   18   21 1
    56   18   63 1
    57   18   64 1
    58   19   22 1
    59   19   65 1
    60   19   66 1
    61   20   23 1
    62   20   67 1
    63   20   68 1
    64   21   24 1
    65   21   69 1
    66   21   70 1
    67   22   25 1
    68   22   71 1
    69   22   72 1
    70   23   25 1
    71   23   73 1
    72   23   74 1
    73   24   25 1
    74   24   75 1
    75   24   76 1
