@<TRIPOS>MOLECULE
C57
   19    18     0     0     0
SMALL
USER_CHARGES

@<TRIPOS>ATOM
      1 C1         -0.0770   -1.0540    0.2980 C.3       1  C57        0.0780 
      2 C2          1.0730   -1.8240   -0.3320 C.3       1  C57       -0.0132 
      3 C3         -0.1100   -1.1650    1.8130 C.3       1  C57       -0.0132 
      4 C4          1.1050   -1.7140   -1.8400 C.3       1  C57        0.2169 
      5 C5         -1.2530   -0.3990    2.4390 C.3       1  C57        0.2169 
      6 O1          2.2060   -2.4630   -2.3060 O.3       1  C57       -0.6548 
      7 O2         -1.1800   -0.5760    3.8370 O.3       1  C57       -0.6548 
      8 H1         -1.0310   -1.4170   -0.1170 H         1  C57       -0.0118 
      9 H2         -0.0070    0.0070    0.0100 H         1  C57       -0.0118 
     10 H3          1.0090   -2.8880   -0.0640 H         1  C57        0.0065 
     11 H4          2.0330   -1.4620    0.0620 H         1  C57        0.0065 
     12 H5          0.8320   -0.7930    2.2410 H         1  C57        0.0065 
     13 H6         -0.1920   -2.2190    2.1150 H         1  C57        0.0065 
     14 H7          1.1870   -0.6500   -2.1310 H         1  C57        0.0091 
     15 H8          0.1540   -2.0890   -2.2590 H         1  C57        0.0091 
     16 H9         -1.1790    0.6680    2.1620 H         1  C57        0.0091 
     17 H10        -2.2130   -0.7710    2.0340 H         1  C57        0.0091 
     18 H11         2.2270   -2.3930   -3.2650 H         1  C57        0.3927 
     19 H12        -1.9070   -0.0890    4.2360 H         1  C57        0.3927 
@<TRIPOS>BOND
     1    1    2 1
     2    1    3 1
     3    1    8 1
     4    1    9 1
     5    2    4 1
     6    2   10 1
     7    2   11 1
     8    3    5 1
     9    3   12 1
    10    3   13 1
    11    4    6 1
    12    4   14 1
    13    4   15 1
    14    5    7 1
    15    5   16 1
    16    5   17 1
    17    6   18 1
    18    7   19 1
