@<TRIPOS>MOLECULE
C58
   20    20     0     0     0
SMALL
USER_CHARGES

@<TRIPOS>ATOM
      1 C1          1.8280   -1.2840   -0.1190 C.ar       1  C58       -0.1884 
      2 C2          2.7530   -1.6240    2.0730 C.ar       1  C58       -0.1884 
      3 C3          0.7740   -0.5740    0.4420 C.ar       1  C58       -0.2154 
      4 C4          1.7010   -0.9170    2.6260 C.ar       1  C58       -0.2154 
      5 C5          2.8310   -1.8180    0.6900 C.ar       1  C58       -0.0320 
      6 C6          0.6910   -0.3780    1.8200 C.ar       1  C58        0.2731 
      7 C7          3.9890   -2.5890    0.1500 C.2       1  C58        0.6165 
      8 C8         -0.4460    0.3850    2.4310 C.3       1  C58       -0.4705 
      9 C9          4.0810   -2.8030   -1.3390 C.3       1  C58       -0.4193 
     10 O1          4.8360   -3.0330    0.8980 O.2       1  C58       -0.5185 
     11 H1          1.8620   -1.4180   -1.1980 H         1  C58        0.1585 
     12 H2          3.5420   -2.0460    2.6910 H         1  C58        0.1585 
     13 H3         -0.0020   -0.1630   -0.2020 H         1  C58        0.1466 
     14 H4          1.6550   -0.7750    3.7050 H         1  C58        0.1466 
     15 H5         -1.0100   -0.2430    3.1330 H         1  C58        0.1360 
     16 H6         -0.0790    1.2500    2.9990 H         1  C58        0.1360 
     17 H7         -1.1410    0.7500    1.6690 H         1  C58        0.1360 
     18 H8          4.1220   -1.8420   -1.8670 H         1  C58        0.1134 
     19 H9          3.1990   -3.3390   -1.7100 H         1  C58        0.1134 
     20 H10         4.9810   -3.3810   -1.5580 H         1  C58        0.1134 
@<TRIPOS>BOND
     1    1    3 ar
     2    1    5 ar
     3    1   11 1
     4    2    4 ar
     5    2    5 ar
     6    2   12 1
     7    3    6 ar
     8    3   13 1
     9    4    6 ar
    10    4   14 1
    11    5    7 1
    12    6    8 1
    13    7    9 1
    14    7   10 2
    15    8   15 1
    16    8   16 1
    17    8   17 1
    18    9   18 1
    19    9   19 1
    20    9   20 1
