@<TRIPOS>MOLECULE
C59
   21    20     0     0     0
SMALL
USER_CHARGES

@<TRIPOS>ATOM
      1 C1          0.6360    0.0010    0.2440 C.2       1  C59        0.7776 
      2 C2         -0.3880   -0.0420    2.4130 C.3       1  C59       -0.3687 
      3 C3         -1.5870    0.9510    0.5640 C.3       1  C59       -0.3687 
      4 C4          1.6120    0.1160   -1.9620 C.3       1  C59       -0.3687 
      5 C5         -0.4560   -1.0970   -1.6490 C.3       1  C59       -0.3687 
      6 N1          1.7610    0.0570    0.8540 N.2       1  C59       -0.8619 
      7 N2         -0.5480    0.0280    0.9770 N.pl3       1  C59       -0.2349 
      8 N3          0.4410   -0.0750   -1.1430 N.pl3       1  C59       -0.2349 
      9 H1          0.0050    0.8970    2.8370 H         1  C59        0.1403 
     10 H2          0.3200   -0.8350    2.6640 H         1  C59        0.1403 
     11 H3         -1.3630   -0.2570    2.8650 H         1  C59        0.1403 
     12 H4         -2.5630    0.5980    0.9210 H         1  C59        0.1403 
     13 H5         -1.6150    1.0290   -0.5250 H         1  C59        0.1403 
     14 H6         -1.4200    1.9630    0.9750 H         1  C59        0.1403 
     15 H7          2.2990   -0.7510   -1.9490 H         1  C59        0.1403 
     16 H8          2.1630    1.0000   -1.6240 H         1  C59        0.1403 
     17 H9          1.2990    0.2780   -3.0000 H         1  C59        0.1403 
     18 H10        -0.8840   -0.7840   -2.6100 H         1  C59        0.1403 
     19 H11        -1.2650   -1.2650   -0.9360 H         1  C59        0.1403 
     20 H12         0.0680   -2.0570   -1.8060 H         1  C59        0.1403 
     21 H13         2.5250   -0.1390    0.2080 H         1  C59        0.3456 
@<TRIPOS>BOND
     1    1    6 2
     2    1    7 1
     3    1    8 1
     4    2    7 1
     5    2    9 1
     6    2   10 1
     7    2   11 1
     8    3    7 1
     9    3   12 1
    10    3   13 1
    11    3   14 1
    12    4    8 1
    13    4   15 1
    14    4   16 1
    15    4   17 1
    16    5    8 1
    17    5   18 1
    18    5   19 1
    19    5   20 1
    20    6   21 1
