@<TRIPOS>MOLECULE
C60
   18    17     0     0     0
SMALL
USER_CHARGES

@<TRIPOS>ATOM
      1 C1          1.8880   -0.0910    5.2820 C.3       1  C60       -0.0853 
      2 C2          2.4360   -2.5120    2.4650 C.3       1  C60       -0.0234 
      3 C3          1.5880   -3.5580    1.7650 C.3       1  C60        0.4285 
      4 C4          1.7040   -1.7900    3.5800 C.3       1  C60        0.0615 
      5 N1          2.3420   -4.1800    0.6840 N.3       1  C60       -0.9810 
      6 N2          2.5390   -0.7740    4.1860 N.3       1  C60       -0.6439 
      7 H1          1.0320    0.4810    4.9010 H         1  C60        0.0716 
      8 H2          2.5800    0.6230    5.7430 H         1  C60        0.0716 
      9 H3          1.5040   -0.7610    6.0770 H         1  C60        0.0716 
     10 H4          2.7950   -1.7820    1.7290 H         1  C60        0.0053 
     11 H5          3.3330   -3.0010    2.8820 H         1  C60        0.0053 
     12 H6          1.1990   -4.2710    2.5170 H         1  C60       -0.0570 
     13 H7          0.7090   -3.0680    1.3220 H         1  C60       -0.0570 
     14 H8          1.3230   -2.5290    4.3180 H         1  C60        0.0430 
     15 H9          0.8130   -1.2900    3.1690 H         1  C60        0.0430 
     16 H10         1.7590   -4.8700    0.2170 H         1  C60        0.3491 
     17 H11         3.1130   -4.7130    1.0820 H         1  C60        0.3491 
     18 H12         3.3910   -1.2140    4.5270 H         1  C60        0.3480 
@<TRIPOS>BOND
     1    1    6 1
     2    1    7 1
     3    1    8 1
     4    1    9 1
     5    2    3 1
     6    2    4 1
     7    2   10 1
     8    2   11 1
     9    3    5 1
    10    3   12 1
    11    3   13 1
    12    4    6 1
    13    4   14 1
    14    4   15 1
    15    5   16 1
    16    5   17 1
    17    6   18 1
