@<TRIPOS>MOLECULE
C61
   21    20     0     0     0
SMALL
USER_CHARGES

@<TRIPOS>ATOM
      1 C1          1.8270   -0.8950    3.9960 C.3       1  C61       -0.3730 
      2 C2          0.1200   -2.3830    3.2810 C.3       1  C61       -0.3730 
      3 C3         -0.3250   -0.5240    0.9440 C.3       1  C61        0.0148 
      4 C4         -0.0380    0.1120   -0.4040 C.3       1  C61        0.3437 
      5 C5          0.9220   -0.6600    1.8020 C.3       1  C61       -0.0749 
      6 N1         -1.2400    0.1110   -1.2270 N.3       1  C61       -0.8220 
      7 N2          0.6460   -1.0400    3.1760 N.3       1  C61       -0.0854 
      8 H1          2.1880    0.1400    3.9530 H         1  C61        0.1264 
      9 H2          2.6600   -1.5590    3.6820 H         1  C61        0.1264 
     10 H3          1.5870   -1.1310    5.0400 H         1  C61        0.1264 
     11 H4         -0.8220   -2.4740    2.7300 H         1  C61        0.1264 
     12 H5         -0.0850   -2.6160    4.3330 H         1  C61        0.1264 
     13 H6          0.8220   -3.1520    2.8920 H         1  C61        0.1264 
     14 H7         -0.7950   -1.4990    0.7620 H         1  C61        0.0001 
     15 H8         -1.0580    0.0850    1.4960 H         1  C61        0.0001 
     16 H9          0.4040    1.1150   -0.2440 H         1  C61       -0.0443 
     17 H10         0.7270   -0.4810   -0.9270 H         1  C61       -0.0443 
     18 H11         1.4360    0.3120    1.8330 H         1  C61        0.0543 
     19 H12         1.6300   -1.3700    1.3200 H         1  C61        0.0543 
     20 H13        -1.0360    0.5330   -2.1300 H         1  C61        0.2956 
     21 H14        -1.9340    0.7220   -0.8010 H         1  C61        0.2956 
@<TRIPOS>BOND
     1    1    7 1
     2    1    8 1
     3    1    9 1
     4    1   10 1
     5    2    7 1
     6    2   11 1
     7    2   12 1
     8    2   13 1
     9    3    4 1
    10    3    5 1
    11    3   14 1
    12    3   15 1
    13    4    6 1
    14    4   16 1
    15    4   17 1
    16    5    7 1
    17    5   18 1
    18    5   19 1
    19    6   20 1
    20    6   21 1
