@<TRIPOS>MOLECULE
C62
   27    26     0     0     0
SMALL
USER_CHARGES

@<TRIPOS>ATOM
      1 C1         -1.4520    0.3500    3.7220 C.3       1  C62       -0.0930 
      2 C2          1.5160   -0.6470    5.5600 C.3       1  C62       -0.0930 
      3 C3          2.1460   -1.0420    1.2030 C.3       1  C62        0.0125 
      4 C4         -0.7020   -0.9750    3.6160 C.3       1  C62        0.0404 
      5 C5          1.5350   -0.1320    4.1330 C.3       1  C62        0.0404 
      6 C6          2.1660   -2.5590    1.1430 C.3       1  C62        0.4465 
      7 C7          0.8840   -0.4790    1.8420 C.3       1  C62        0.0302 
      8 N1          3.3750   -3.0220    0.4710 N.3       1  C62       -1.0490 
      9 N2          0.7000   -0.9010    3.2250 N.3       1  C62       -0.4363 
     10 H1         -1.0370    0.9930    4.5090 H         1  C62        0.0353 
     11 H2         -1.4190    0.9100    2.7790 H         1  C62        0.0353 
     12 H3         -2.5070    0.1710    3.9670 H         1  C62        0.0353 
     13 H4          0.5520   -0.4690    6.0530 H         1  C62        0.0353 
     14 H5          1.7150   -1.7260    5.5830 H         1  C62        0.0353 
     15 H6          2.2840   -0.1400    6.1560 H         1  C62        0.0353 
     16 H7          2.2430   -0.6440    0.1840 H         1  C62       -0.0065 
     17 H8          3.0360   -0.6900    1.7470 H         1  C62       -0.0065 
     18 H9         -1.2020   -1.6210    2.8820 H         1  C62        0.0469 
     19 H10        -0.7640   -1.5080    4.5740 H         1  C62        0.0469 
     20 H11         2.5630   -0.1880    3.7540 H         1  C62        0.0469 
     21 H12         1.2700    0.9460    4.1230 H         1  C62        0.0469 
     22 H13         2.0220   -2.9520    2.1650 H         1  C62       -0.0552 
     23 H14         1.3020   -2.9020    0.5540 H         1  C62       -0.0552 
     24 H15         0.0160   -0.8360    1.2690 H         1  C62        0.0435 
     25 H16         0.8870    0.6250    1.7450 H         1  C62        0.0435 
     26 H17         3.3710   -4.0390    0.4350 H         1  C62        0.3691 
     27 H18         4.1810   -2.7870    1.0490 H         1  C62        0.3691 
@<TRIPOS>BOND
     1    1    4 1
     2    1   10 1
     3    1   11 1
     4    1   12 1
     5    2    5 1
     6    2   13 1
     7    2   14 1
     8    2   15 1
     9    3    6 1
    10    3    7 1
    11    3   16 1
    12    3   17 1
    13    4    9 1
    14    4   18 1
    15    4   19 1
    16    5    9 1
    17    5   20 1
    18    5   21 1
    19    6    8 1
    20    6   22 1
    21    6   23 1
    22    7    9 1
    23    7   24 1
    24    7   25 1
    25    8   26 1
    26    8   27 1
