@<TRIPOS>MOLECULE
C63
   74    73     0     0     0
SMALL
USER_CHARGES

@<TRIPOS>ATOM
      1 C1         -4.7300    6.1530   13.0540 C.3       1  C63       -0.1475 
      2 C2          5.8850   -7.8560  -10.3700 C.3       1  C63       -0.1475 
      3 C3         -4.3590    4.8320   12.4010 C.3       1  C63        0.0552 
      4 C4          5.5150   -6.5350   -9.7170 C.3       1  C63        0.0552 
      5 C5         -3.8010    4.9950   10.9950 C.3       1  C63        0.0292 
      6 C6          4.9580   -6.6970   -8.3100 C.3       1  C63        0.0292 
      7 C7         -3.4260    3.6790   10.3300 C.3       1  C63        0.0072 
      8 C8          4.5840   -5.3810   -7.6450 C.3       1  C63        0.0072 
      9 C9         -2.8680    3.8420    8.9240 C.3       1  C63        0.0205 
     10 C10         4.0270   -5.5440   -6.2390 C.3       1  C63        0.0205 
     11 C11        -2.4940    2.5250    8.2600 C.3       1  C63        0.0331 
     12 C12         3.6530   -4.2270   -5.5740 C.3       1  C63        0.0331 
     13 C13        -1.9360    2.6880    6.8540 C.3       1  C63        0.0279 
     14 C14         3.0960   -4.3900   -4.1680 C.3       1  C63        0.0279 
     15 C15        -1.5620    1.3720    6.1890 C.3       1  C63        0.0314 
     16 C16         2.7220   -3.0740   -3.5030 C.3       1  C63        0.0314 
     17 C17        -1.0050    1.5350    4.7830 C.3       1  C63        0.0176 
     18 C18         2.1650   -3.2370   -2.0970 C.3       1  C63        0.0176 
     19 C19        -0.6300    0.2190    4.1170 C.3       1  C63        0.0367 
     20 C20         1.7910   -1.9210   -1.4320 C.3       1  C63        0.0367 
     21 C21        -0.0730    0.3830    2.7110 C.3       1  C63        0.0236 
     22 C22         1.2330   -2.0850   -0.0250 C.3       1  C63        0.0236 
     23 C23         0.3020   -0.9330    2.0460 C.3       1  C63        0.0079 
     24 C24         0.8590   -0.7690    0.6400 C.3       1  C63        0.0079 
     25 H1         -3.8570    6.8160   13.1330 H         1  C63        0.0322 
     26 H2         -5.1290    6.0080   14.0650 H         1  C63        0.0322 
     27 H3         -5.4920    6.6850   12.4690 H         1  C63        0.0322 
     28 H4          6.6470   -8.3880   -9.7860 H         1  C63        0.0322 
     29 H5          6.2830   -7.7100  -11.3820 H         1  C63        0.0322 
     30 H6          5.0120   -8.5170  -10.4490 H         1  C63        0.0322 
     31 H7         -5.2420    4.1770   12.3650 H         1  C63       -0.0060 
     32 H8         -3.6200    4.3060   13.0240 H         1  C63       -0.0060 
     33 H9          4.7760   -6.0080  -10.3390 H         1  C63       -0.0060 
     34 H10         6.3990   -5.8790   -9.6810 H         1  C63       -0.0060 
     35 H11        -2.9160    5.6510   11.0290 H         1  C63       -0.0039 
     36 H12        -4.5390    5.5210   10.3690 H         1  C63       -0.0039 
     37 H13         5.6970   -7.2240   -7.6850 H         1  C63       -0.0039 
     38 H14         4.0730   -7.3520   -8.3430 H         1  C63       -0.0039 
     39 H15        -4.3110    3.0240   10.2970 H         1  C63       -0.0102 
     40 H16        -2.6880    3.1530   10.9560 H         1  C63       -0.0102 
     41 H17         5.4690   -4.7260   -7.6120 H         1  C63       -0.0102 
     42 H18         3.8460   -4.8540   -8.2700 H         1  C63       -0.0102 
     43 H19        -1.9830    4.4970    8.9570 H         1  C63       -0.0136 
     44 H20        -3.6060    4.3680    8.2980 H         1  C63       -0.0136 
     45 H21         3.1420   -6.1980   -6.2720 H         1  C63       -0.0136 
     46 H22         4.7660   -6.0700   -5.6140 H         1  C63       -0.0136 
     47 H23        -3.3790    1.8700    8.2260 H         1  C63       -0.0141 
     48 H24        -1.7560    1.9990    8.8850 H         1  C63       -0.0141 
     49 H25         4.5380   -3.5720   -5.5410 H         1  C63       -0.0141 
     50 H26         2.9150   -3.7010   -6.1990 H         1  C63       -0.0141 
     51 H27        -1.0520    3.3430    6.8870 H         1  C63       -0.0126 
     52 H28        -2.6750    3.2140    6.2280 H         1  C63       -0.0126 
     53 H29         3.8350   -4.9160   -3.5430 H         1  C63       -0.0126 
     54 H30         2.2120   -5.0450   -4.2010 H         1  C63       -0.0126 
     55 H31        -0.8240    0.8460    6.8140 H         1  C63       -0.0143 
     56 H32        -2.4470    0.7170    6.1550 H         1  C63       -0.0143 
     57 H33         1.9840   -2.5480   -4.1280 H         1  C63       -0.0143 
     58 H34         3.6070   -2.4190   -3.4700 H         1  C63       -0.0143 
     59 H35        -0.1200    2.1910    4.8160 H         1  C63       -0.0154 
     60 H36        -1.7430    2.0620    4.1570 H         1  C63       -0.0154 
     61 H37         1.2800   -3.8930   -2.1300 H         1  C63       -0.0154 
     62 H38         2.9040   -3.7640   -1.4720 H         1  C63       -0.0154 
     63 H39        -1.5150   -0.4360    4.0840 H         1  C63       -0.0139 
     64 H40         0.1080   -0.3070    4.7420 H         1  C63       -0.0139 
     65 H41         2.6760   -1.2660   -1.3980 H         1  C63       -0.0139 
     66 H42         1.0520   -1.3950   -2.0570 H         1  C63       -0.0139 
     67 H43         0.8120    1.0380    2.7450 H         1  C63       -0.0078 
     68 H44        -0.8110    0.9090    2.0860 H         1  C63       -0.0078 
     69 H45         1.9720   -2.6110    0.6000 H         1  C63       -0.0078 
     70 H46         0.3490   -2.7400   -0.0590 H         1  C63       -0.0078 
     71 H47         1.0400   -1.4590    2.6710 H         1  C63       -0.0079 
     72 H48        -0.5830   -1.5880    2.0120 H         1  C63       -0.0079 
     73 H49         0.1200   -0.2430    0.0150 H         1  C63       -0.0079 
     74 H50         1.7440   -0.1140    0.6730 H         1  C63       -0.0079 
@<TRIPOS>BOND
     1    1    3 1
     2    1   25 1
     3    1   26 1
     4    1   27 1
     5    2    4 1
     6    2   28 1
     7    2   29 1
     8    2   30 1
     9    3    5 1
    10    3   31 1
    11    3   32 1
    12    4    6 1
    13    4   33 1
    14    4   34 1
    15    5    7 1
    16    5   35 1
    17    5   36 1
    18    6    8 1
    19    6   37 1
    20    6   38 1
    21    7    9 1
    22    7   39 1
    23    7   40 1
    24    8   10 1
    25    8   41 1
    26    8   42 1
    27    9   11 1
    28    9   43 1
    29    9   44 1
    30   10   12 1
    31   10   45 1
    32   10   46 1
    33   11   13 1
    34   11   47 1
    35   11   48 1
    36   12   14 1
    37   12   49 1
    38   12   50 1
    39   13   15 1
    40   13   51 1
    41   13   52 1
    42   14   16 1
    43   14   53 1
    44   14   54 1
    45   15   17 1
    46   15   55 1
    47   15   56 1
    48   16   18 1
    49   16   57 1
    50   16   58 1
    51   17   19 1
    52   17   59 1
    53   17   60 1
    54   18   20 1
    55   18   61 1
    56   18   62 1
    57   19   21 1
    58   19   63 1
    59   19   64 1
    60   20   22 1
    61   20   65 1
    62   20   66 1
    63   21   23 1
    64   21   67 1
    65   21   68 1
    66   22   24 1
    67   22   69 1
    68   22   70 1
    69   23   24 1
    70   23   71 1
    71   23   72 1
    72   24   73 1
    73   24   74 1
