@<TRIPOS>MOLECULE
C65
   15    15     0     0     0
SMALL
USER_CHARGES

@<TRIPOS>ATOM
      1 C1          1.9090   -0.7850   -0.9530 C.2       1  C65        0.1271 
      2 C2          0.5880   -0.8270   -0.5920 C.2       1  C65       -0.4370 
      3 C3          1.4430   -2.8370   -0.6790 C.2       1  C65        0.0909 
      4 C4         -1.9660   -2.7230   -1.2430 C.3       1  C65       -0.0601 
      5 C5         -0.9920   -2.7280   -0.0780 C.3       1  C65        0.0398 
      6 N1          2.4370   -2.0460   -1.0050 N.2       1  C65       -0.5057 
      7 N2          0.2960   -2.1560   -0.4130 N.pl3       1  C65        0.1503 
      8 H1          2.5090    0.0900   -1.1710 H         1  C65        0.1103 
      9 H2         -0.1550   -0.0540   -0.4420 H         1  C65        0.2187 
     10 H3          1.4900   -3.9190   -0.6090 H         1  C65        0.1111 
     11 H4         -2.1600   -1.7010   -1.5890 H         1  C65        0.0303 
     12 H5         -2.9210   -3.1680   -0.9410 H         1  C65        0.0303 
     13 H6         -1.5670   -3.2960   -2.0870 H         1  C65        0.0303 
     14 H7         -0.8090   -3.7520    0.2680 H         1  C65        0.0319 
     15 H8         -1.4050   -2.1740    0.7740 H         1  C65        0.0319 
@<TRIPOS>BOND
     1    1    2 2
     2    1    6 1
     3    1    8 1
     4    2    7 1
     5    2    9 1
     6    3    6 2
     7    3    7 1
     8    3   10 1
     9    4    5 1
    10    4   11 1
    11    4   12 1
    12    4   13 1
    13    5    7 1
    14    5   14 1
    15    5   15 1
