@<TRIPOS>MOLECULE
C66
   27    26     0     0     0
SMALL
USER_CHARGES

@<TRIPOS>ATOM
      1 C1         -3.1520   -2.6250    0.0470 C.3       1  C66       -0.3497 
      2 C2         -2.2080   -0.9430   -1.3350 C.3       1  C66       -0.3497 
      3 C3          2.7640   -2.0210    2.4460 C.3       1  C66       -0.3497 
      4 C4          2.4720   -1.4270    0.1610 C.3       1  C66       -0.3497 
      5 C5         -0.2520   -0.4020    0.8950 C.3       1  C66        0.1327 
      6 C6         -1.0500   -1.6730    0.6470 C.3       1  C66       -0.0546 
      7 C7          0.9280   -0.6260    1.8280 C.3       1  C66       -0.0546 
      8 N1         -2.3390   -1.4300    0.0200 N.3       1  C66       -0.1574 
      9 N2          1.8040   -1.7080    1.4120 N.3       1  C66       -0.1574 
     10 H1         -3.2890   -2.9600    1.0830 H         1  C66        0.1250 
     11 H2         -2.7090   -3.4660   -0.5260 H         1  C66        0.1250 
     12 H3         -4.1400   -2.4130   -0.3780 H         1  C66        0.1250 
     13 H4         -1.6780    0.0150   -1.3540 H         1  C66        0.1250 
     14 H5         -3.2030   -0.7790   -1.7640 H         1  C66        0.1250 
     15 H6         -1.6640   -1.6500   -1.9970 H         1  C66        0.1250 
     16 H7          2.2410   -2.2880    3.3720 H         1  C66        0.1250 
     17 H8          3.4480   -1.1770    2.6740 H         1  C66        0.1250 
     18 H9          3.3770   -2.8770    2.1400 H         1  C66        0.1250 
     19 H10         1.7410   -1.3100   -0.6470 H         1  C66        0.1250 
     20 H11         3.1250   -2.2670   -0.1030 H         1  C66        0.1250 
     21 H12         3.0950   -0.5090    0.1990 H         1  C66        0.1250 
     22 H13        -0.9170    0.3470    1.3460 H         1  C66       -0.0125 
     23 H14         0.0960    0.0290   -0.0530 H         1  C66       -0.0125 
     24 H15        -0.4390   -2.3930    0.0640 H         1  C66        0.0539 
     25 H16        -1.2420   -2.1560    1.6150 H         1  C66        0.0539 
     26 H17         0.5470   -0.8890    2.8250 H         1  C66        0.0539 
     27 H18         1.4910    0.3260    1.9470 H         1  C66        0.0539 
@<TRIPOS>BOND
     1    1    8 1
     2    1   10 1
     3    1   11 1
     4    1   12 1
     5    2    8 1
     6    2   13 1
     7    2   14 1
     8    2   15 1
     9    3    9 1
    10    3   16 1
    11    3   17 1
    12    3   18 1
    13    4    9 1
    14    4   19 1
    15    4   20 1
    16    4   21 1
    17    5    6 1
    18    5    7 1
    19    5   22 1
    20    5   23 1
    21    6    8 1
    22    6   24 1
    23    6   25 1
    24    7    9 1
    25    7   26 1
    26    7   27 1
