@<TRIPOS>MOLECULE
DEE
   15    14     0     0     0
SMALL
USER_CHARGES

@<TRIPOS>ATOM
      1 C1          0.9030    1.4540    0.5560 C.3       1 MOL1     -0.221000
      2 C2          1.9370    1.3290   -4.0520 C.3       1 MOL1     -0.221000
      3 C3          1.9100    0.9070   -0.4250 C.3       1 MOL1      0.244900
      4 C4          2.4230    0.8450   -2.7080 C.3       1 MOL1      0.244900
      5 O1          1.5390    1.3090   -1.7190 O.3       1 MOL1     -0.468600
      6 H1          0.8740    2.5480    0.5040 H         1 MOL1      0.063600
      7 H2         -0.1000    1.0750    0.3250 H         1 MOL1      0.063600
      8 H3          1.1600    1.1590    1.5800 H         1 MOL1      0.063600
      9 H4          0.9280    0.9510   -4.2530 H         1 MOL1      0.063600
     10 H5          1.9020    2.4240   -4.0740 H         1 MOL1      0.063600
     11 H6          2.6040    0.9850   -4.8510 H         1 MOL1      0.063600
     12 H7          1.9530   -0.1970   -0.3670 H         1 MOL1      0.009900
     13 H8          2.9260    1.2760   -0.1880 H         1 MOL1      0.009900
     14 H9          3.4460    1.2130   -2.5070 H         1 MOL1      0.009900
     15 H10         2.4730   -0.2590   -2.6860 H         1 MOL1      0.009900
@<TRIPOS>BOND
     1    1    3 1
     2    1    6 1
     3    1    7 1
     4    1    8 1
     5    2    4 1
     6    2    9 1
     7    2   10 1
     8    2   11 1
     9    3    5 1
    10    3   12 1
    11    3   13 1
    12    4    5 1
    13    4   14 1
    14    4   15 1
