@<TRIPOS>MOLECULE
FUR
    9     9     0     0     0
SMALL
USER_CHARGES

@<TRIPOS>ATOM
      1 C1          0.5750   -0.5370   -2.1130 C.2       1 MOL1     -0.192800
      2 C2          0.0970   -0.7450   -0.7820 C.2       1 MOL1     -0.192800
      3 C3          0.5060   -1.7460   -2.7260 C.2       1 MOL1     -0.072500
      4 C4         -0.2220   -2.0620   -0.7030 C.2       1 MOL1     -0.072500
      5 O1          0.0220   -2.6840   -1.8790 O.3       1 MOL1     -0.120100
      6 H1          0.9230    0.3890   -2.5520 H         1 MOL1      0.163900
      7 H2          0.0030   -0.0110    0.0080 H         1 MOL1      0.163900
      8 H3          0.7530   -2.0910   -3.7200 H         1 MOL1      0.161400
      9 H4         -0.6170   -2.6860    0.0870 H         1 MOL1      0.161400
@<TRIPOS>BOND
     1    1    2 1
     2    1    3 2
     3    1    6 1
     4    2    4 2
     5    2    7 1
     6    3    5 1
     7    3    8 1
     8    4    5 1
     9    4    9 1
