@<TRIPOS>MOLECULE
ISO
   17    16     1     0     0
SMALL
No Charge or Current Charge


@<TRIPOS>ATOM
      1 C1         -0.2410   -0.8720   -0.6830 C.3       1  ISO     -0.082900
      2 C2          2.6790   -1.6640   -1.3900 C.3       1  ISO     -0.234100
      3 C3          2.5160   -0.0650   -3.3100 C.3       1  ISO     -0.234100
      4 C4          0.4450   -0.6430   -2.0210 C.3       1  ISO      0.006600
      5 C5          1.9590   -0.4400   -1.9430 C.3       1  ISO      0.290800
      6 H1         -0.0320   -0.0500    0.0150 H         1  ISO      0.018100
      7 H2          0.0910   -1.8020   -0.2040 H         1  ISO      0.018100
      8 H3         -1.3290   -0.9380   -0.8010 H         1  ISO      0.018100
      9 H4          2.4970   -2.5410   -2.0270 H         1  ISO      0.046300
     10 H5          2.3510   -1.9150   -0.3750 H         1  ISO      0.046300
     11 H6          3.7640   -1.5000   -1.3550 H         1  ISO      0.046300
     12 H7          2.3530   -0.8780   -4.0320 H         1  ISO      0.046300
     13 H8          3.5950    0.1270   -3.2650 H         1  ISO      0.046300
     14 H9          2.0300    0.8350   -3.7090 H         1  ISO      0.046300
     15 H10         0.2380   -1.4900   -2.6940 H         1  ISO     -0.010900
     16 H11         0.0020    0.2410   -2.5040 H         1  ISO     -0.010900
     17 H12         2.1450    0.4030   -1.2560 H         1  ISO     -0.056900
@<TRIPOS>BOND
     1     1     4 1   
     2     1     6 1   
     3     1     7 1   
     4     1     8 1   
     5     2     5 1   
     6     2     9 1   
     7     2    10 1   
     8     2    11 1   
     9     3     5 1   
    10     3    12 1   
    11     3    13 1   
    12     3    14 1   
    13     4     5 1   
    14     4    15 1   
    15     4    16 1   
    16     5    17 1   
@<TRIPOS>SUBSTRUCTURE
     1 ISO         1 TEMP              0 ****  ****    0 ROOT
