@<TRIPOS>MOLECULE
MAA
    7     6     1     0     0
SMALL
No Charge or Current Charge


@<TRIPOS>ATOM
      1 C1         -0.6500   -0.7370    0.4880 C.3       1  MAA      0.314000
      2 N1         -1.8790   -0.6980   -0.2890 N.3       1  MAA     -0.983200
      3 H1         -0.3540   -1.7270    0.8800 H         1  MAA     -0.019500
      4 H2         -0.7400   -0.0580    1.3460 H         1  MAA     -0.019500
      5 H3          0.1800   -0.3640   -0.1250 H         1  MAA     -0.019500
      6 H4         -2.6440   -1.0630    0.2740 H         1  MAA      0.363800
      7 H5         -1.8020   -1.3430   -1.0720 H         1  MAA      0.363800
@<TRIPOS>BOND
     1     1     2 1   
     2     1     3 1   
     3     1     4 1   
     4     1     5 1   
     5     2     6 1   
     6     2     7 1   
@<TRIPOS>SUBSTRUCTURE
     1 MAA         1 TEMP              0 ****  ****    0 ROOT
