@<TRIPOS>MOLECULE
MAC
   11    10     0     0     0
SMALL
USER_CHARGES

@<TRIPOS>ATOM
      1 C1         -1.7450   -0.5420   -1.1650 C.2       1 MAC1      0.847100
      2 C2         -0.9920   -0.5210    0.1300 C.3       1 MAC1     -0.632500
      3 C3         -2.4660    0.7440   -2.9700 C.3       1 MAC1     -0.163300
      4 O1         -2.2730   -1.5040   -1.6610 O.2       1 MAC1     -0.562100
      5 O2         -1.7660    0.6790   -1.7310 O.3       1 MAC1     -0.355500
      6 H1          0.0350   -0.1810   -0.0430 H         1 MAC1      0.173600
      7 H2         -0.9900   -1.5210    0.5670 H         1 MAC1      0.173600
      8 H3         -1.4580    0.1920    0.8190 H         1 MAC1      0.173600
      9 H4         -2.3950    1.7820   -3.2990 H         1 MAC1      0.115200
     10 H5         -3.5130    0.4510   -2.8390 H         1 MAC1      0.115200
     11 H6         -2.0100    0.0740   -3.7070 H         1 MAC1      0.115200
@<TRIPOS>BOND
     1    1    2 1
     2    1    4 2
     3    1    5 1
     4    2    6 1
     5    2    7 1
     6    2    8 1
     7    3    5 1
     8    3    9 1
     9    3   10 1
    10    3   11 1
