@<TRIPOS>MOLECULE
MPE
   15    14     1     0     0
SMALL
No Charge or Current Charge


@<TRIPOS>ATOM
      1 C1         -0.0030   -0.6470    0.8750 C.3       1  MPE     -0.129900
      2 C2          2.5570   -1.9070    4.7920 C.3       1  MPE     -0.128000
      3 C3          1.2460   -0.4510    1.7160 C.3       1  MPE      0.173400
      4 C4          1.2740   -1.3520    2.9300 C.3       1  MPE      0.038800
      5 O1          2.4550   -1.1090    3.6490 O.3       1  MPE     -0.331800
      6 H1         -0.0810   -1.6790    0.5080 H         1  MPE      0.027100
      7 H2         -0.9130   -0.4330    1.4520 H         1  MPE      0.027100
      8 H3         -0.0030    0.0150    0.0020 H         1  MPE      0.027100
      9 H4          3.4990   -1.6570    5.2910 H         1  MPE      0.091200
     10 H5          2.5630   -2.9840    4.5430 H         1  MPE      0.091200
     11 H6          1.7240   -1.7280    5.4950 H         1  MPE      0.091200
     12 H7          1.3210    0.5910    2.0580 H         1  MPE     -0.026700
     13 H8          2.1470   -0.6480    1.1200 H         1  MPE     -0.026700
     14 H9          0.3900   -1.1650    3.5690 H         1  MPE      0.038100
     15 H10         1.2240   -2.4150    2.6220 H         1  MPE      0.038100
@<TRIPOS>BOND
     1     1     3 1   
     2     1     6 1   
     3     1     7 1   
     4     1     8 1   
     5     2     5 1   
     6     2     9 1   
     7     2    10 1   
     8     2    11 1   
     9     3     4 1   
    10     3    12 1   
    11     3    13 1   
    12     4     5 1   
    13     4    14 1   
    14     4    15 1   
@<TRIPOS>SUBSTRUCTURE
     1 MPE         1 TEMP              0 ****  ****    0 ROOT
