@<TRIPOS>MOLECULE
MTH
    6     5     0     0     0
SMALL
USER_CHARGES

@<TRIPOS>ATOM
      1 C1          0.2850    0.7820    0.7000 C.3       1 MOL1      0.099900
      2 O1         -0.3170    2.0050    0.3560 O.3       1 MOL1     -0.578400
      3 H1         -0.0840    0.5090    1.6950 H         1 MOL1      0.032100
      4 H2          1.3850    0.8430    0.7560 H         1 MOL1      0.032100
      5 H3          0.0220   -0.0380    0.0100 H         1 MOL1      0.032100
      6 H4          0.0020    2.2510   -0.5170 H         1 MOL1      0.382300
@<TRIPOS>BOND
     1    1    2 1
     2    1    3 1
     3    1    4 1
     4    1    5 1
     5    2    6 1
