@<TRIPOS>MOLECULE
NMM
   18    18     0     0     0
SMALL
USER_CHARGES

@<TRIPOS>ATOM
      1 C1          0.3240    0.2560   -1.0030 C.3       1 MOL1     -0.137900
      2 C2         -1.2140   -1.2210   -2.0410 C.3       1 MOL1     -0.137900
      3 C3         -0.4730    1.4220   -1.5500 C.3       1 MOL1      0.057500
      4 C4         -1.9720   -0.0170   -2.5620 C.3       1 MOL1      0.057500
      5 C5          0.9600   -2.0160   -1.4210 C.3       1 MOL1     -0.506900
      6 N1          0.1900   -0.8880   -1.8860 N.4       1 MOL1     -0.188900
      7 O1         -1.8350    1.0860   -1.6950 O.3       1 MOL1     -0.343800
      8 H1          1.3850    0.5310   -0.9310 H         1 MOL1      0.106200
      9 H2         -0.0330    0.0220    0.0230 H         1 MOL1      0.106200
     10 H3         -1.6640   -1.5440   -1.0780 H         1 MOL1      0.106200
     11 H4         -1.3090   -2.0550   -2.7490 H         1 MOL1      0.106200
     12 H5         -0.4300    2.2780   -0.8690 H         1 MOL1      0.067100
     13 H6         -0.0520    1.7230   -2.5270 H         1 MOL1      0.067100
     14 H7         -1.5940    0.2430   -3.5670 H         1 MOL1      0.067100
     15 H8         -3.0430   -0.2320   -2.6330 H         1 MOL1      0.067100
     16 H9          0.8670   -2.8480   -2.1310 H         1 MOL1      0.169100
     17 H10         0.6360   -2.3800   -0.4240 H         1 MOL1      0.169100
     18 H11         2.0190   -1.7410   -1.3530 H         1 MOL1      0.169100
@<TRIPOS>BOND
     1    1    3 1
     2    1    6 1
     3    1    8 1
     4    1    9 1
     5    2    4 1
     6    2    6 1
     7    2   10 1
     8    2   11 1
     9    3    7 1
    10    3   12 1
    11    3   13 1
    12    4    7 1
    13    4   14 1
    14    4   15 1
    15    5    6 1
    16    5   16 1
    17    5   17 1
    18    5   18 1
