@<TRIPOS>MOLECULE
PAC
   11    10     0     0     0
SMALL
USER_CHARGES

@<TRIPOS>ATOM
      1 C1         -0.8920   -1.5300   -2.1300 C.2       1 PAC1      0.595600
      2 C2          0.7840   -0.5940   -0.5060 C.3       1 PAC1     -0.107300
      3 C3          0.4210   -0.7980   -1.9630 C.3       1 PAC1     -0.039500
      4 O1         -1.5750   -1.9090   -1.2230 O.2       1 PAC1     -0.495100
      5 O2         -1.2770   -1.7460   -3.4080 O.3       1 PAC1     -0.496100
      6 H1          0.8640   -1.5570    0.0090 H         1 PAC1      0.041500
      7 H2          1.7360   -0.0630   -0.4100 H         1 PAC1      0.041500
      8 H3          0.0060   -0.0180    0.0070 H         1 PAC1      0.041500
      9 H4          0.3430    0.1640   -2.4930 H         1 PAC1      0.038100
     10 H5          1.1980   -1.3710   -2.4910 H         1 PAC1      0.038100
     11 H6         -0.6160   -1.3790   -4.0080 H         1 PAC1      0.341800
@<TRIPOS>BOND
     1    1    3 1
     2    1    4 2
     3    1    5 1
     4    2    3 1
     5    2    6 1
     6    2    7 1
     7    2    8 1
     8    3    9 1
     9    3   10 1
    10    5   11 1
