@<TRIPOS>MOLECULE
TOL
   15    15     1     0     0
SMALL
No Charge or Current Charge


@<TRIPOS>ATOM
      1 C1          1.8830   -1.0400   -0.1250 C.ar      1  TOL     -0.109700
      2 C2          0.8140   -0.4650    0.5530 C.ar      1  TOL     -0.197000
      3 C3          2.9150   -1.6260    0.6000 C.ar      1  TOL     -0.197000
      4 C4          0.7790   -0.4790    1.9430 C.ar      1  TOL     -0.188800
      5 C5          2.8750   -1.6360    1.9890 C.ar      1  TOL     -0.188800
      6 C6          1.8070   -1.0670    2.6830 C.ar      1  TOL      0.205600
      7 C7          1.7510   -1.1080    4.1830 C.3       1  TOL     -0.392700
      8 H1          1.9140   -1.0280   -1.2120 H         1  TOL      0.134500
      9 H2          0.0030    0.0010   -0.0030 H         1  TOL      0.156200
     10 H3          3.7600   -2.0740    0.0800 H         1  TOL      0.156200
     11 H4         -0.0600   -0.0220    2.4650 H         1  TOL      0.142300
     12 H5          3.6910   -2.0940    2.5480 H         1  TOL      0.142300
     13 H6          1.2410   -2.0170    4.5330 H         1  TOL      0.112300
     14 H7          2.7550   -1.1080    4.6210 H         1  TOL      0.112300
     15 H8          1.2010   -0.2500    4.5870 H         1  TOL      0.112300
@<TRIPOS>BOND
     1     1     2 ar  
     2     1     3 ar  
     3     1     8 1   
     4     2     4 ar  
     5     2     9 1   
     6     3     5 ar  
     7     3    10 1   
     8     4     6 ar  
     9     4    11 1   
    10     5     6 ar  
    11     5    12 1   
    12     6     7 1   
    13     7    13 1   
    14     7    14 1   
    15     7    15 1   
@<TRIPOS>SUBSTRUCTURE
     1 TOL         1 TEMP              0 ****  ****    0 ROOT
