@<TRIPOS>MOLECULE
*****
    9     8     0     0     0
SMALL
USER_CHARGES

mmff94smod_NoEstat = -1.42
@<TRIPOS>ATOM
      1 C1          1.0616   -0.2681   -0.0006 C.3       1 <0>         0.0000
      2 C2          1.9101    0.9126   -0.4220 C.3       1 <0>         0.2800
      3 O1          1.5170    1.3236   -1.7228 O.3       1 <0>        -0.6800
      4 H1          0.0022    0.0017    0.0240 H         1 <0>         0.0000
      5 H2          1.1969   -1.1069   -0.6913 H         1 <0>         0.0000
      6 H3          1.3591   -0.6222    0.9921 H         1 <0>         0.0000
      7 H4          2.9684    0.6361   -0.4446 H         1 <0>         0.0000
      8 H5          1.7730    1.7499    0.2687 H         1 <0>         0.0000
      9 H6          2.0787    2.0794   -1.9612 H         1 <0>         0.4000
@<TRIPOS>BOND
     1    1    2 1
     2    2    3 1
     3    1    4 1
     4    1    5 1
     5    1    6 1
     6    2    7 1
     7    2    8 1
     8    3    9 1
