@<TRIPOS>MOLECULE
ETH
    9     8     0     0     0
SMALL
USER_CHARGES

@<TRIPOS>ATOM
      1 C1          1.0590   -0.2840    0.0080 C.3       1  ETH       -0.3932 
      2 C2          1.9150    0.8810   -0.4460 C.3       1  ETH        0.7616 
      3 O1          1.5380    1.3760   -1.7120 O.3       1  ETH       -1.2814 
      4 H1         -0.0010   -0.0050    0.0030 H         1  ETH        0.0986 
      5 H2          1.1860   -1.1470   -0.6600 H         1  ETH        0.0986 
      6 H3          1.3320   -0.6070    1.0200 H         1  ETH        0.0986 
      7 H4          2.9820    0.5980   -0.4250 H         1  ETH       -0.0662 
      8 H5          1.7990    1.7260    0.2450 H         1  ETH       -0.0662 
      9 H6          1.6370    0.6540   -2.3420 H         1  ETH        0.7502 
@<TRIPOS>BOND
     1    1    2 1
     2    1    4 1
     3    1    5 1
     4    1    6 1
     5    2    3 1
     6    2    7 1
     7    2    8 1
     8    3    9 1
