@<TRIPOS>MOLECULE
*****
    9     8     0     0     0
SMALL
USER_CHARGES

@<TRIPOS>ATOM
      1 C1          1.0710   -0.2620   -0.0070 C.3       1 MOL1       -0.2300
      2 C2          1.9170    0.9160   -0.4230 C.3       1 MOL1        0.3063
      3 O1          1.5020    1.3070   -1.7150 O.3       1 MOL1       -0.5658
      4 H1          0.0100    0.0150    0.0010 H         1 MOL1        0.0621
      5 H2          1.2000   -1.0900   -0.7140 H         1 MOL1        0.0621
      6 H3          1.3500   -0.6100    0.9940 H         1 MOL1        0.0621
      7 H4          2.9840    0.6330   -0.4120 H         1 MOL1       -0.0153
      8 H5          1.7940    1.7400    0.3030 H         1 MOL1       -0.0153
      9 H6          2.0390    2.0580   -1.9840 H         1 MOL1        0.3339
@<TRIPOS>BOND
     1    1    2 1
     2    1    4 1
     3    1    5 1
     4    1    6 1
     5    2    3 1
     6    2    7 1
     7    2    8 1
     8    3    9 1
